data_image0
_chemical_formula_structural       COV6Pt18V6Pt18
_chemical_formula_sum              "C1 O1 V12 Pt36"
_cell_length_a       8.720125420576542
_cell_length_b       8.857884573426693
_cell_length_c       108.60564422607422
_cell_angle_alpha    108.13817900684344
_cell_angle_beta     71.56505167245975
_cell_angle_gamma    78.64487190558975

_space_group_name_H-M_alt    "P 1"
_space_group_IT_number       1

loop_
  _space_group_symop_operation_xyz
  'x, y, z'

loop_
  _atom_site_type_symbol
  _atom_site_label
  _atom_site_symmetry_multiplicity
  _atom_site_fract_x
  _atom_site_fract_y
  _atom_site_fract_z
  _atom_site_occupancy
  C   C1        1.0  0.003411516788488038  0.008395146410338656  0.00012653657717284704  1.0000
  O   O1        1.0  0.003411516788488038  0.008395146410338656  0.00023702829612730342  1.0000
  V   V1        1.0  2.3629350242923497e-05  2.264709982223315e-05  0.9994853266771255  1.0000
  V   V2        1.0  0.0033569626888299282  2.264709982223315e-05  0.999146787620866  1.0000
  V   V3        1.0  0.006690295971127595  2.264709982223315e-05  0.9993160570404614  1.0000
  V   V4        1.0  0.008356962409634808  0.005022647099822234  0.9994006918651678  1.0000
  V   V5        1.0  0.0016902960701968308  0.005022647099822234  0.9990621527458513  1.0000
  V   V6        1.0  0.005023629352494496  0.005022647099822234  0.9992314224398554  1.0000
  Pt  Pt1       1.0  0.0008569627383645465  0.002522647099822233  0.9991467874549631  1.0000
  Pt  Pt2       1.0  0.00419029613324089  0.002522647099822233  0.9993160574205173  1.0000
  Pt  Pt3       1.0  0.007523629640695912  0.002522647099822233  0.999485326834396  1.0000
  Pt  Pt4       1.0  0.007523629640695912  0.002522647099822233  0.999231422597183  1.0000
  Pt  Pt5       1.0  0.0008569627383645465  0.002522647099822233  0.9994006922409933  1.0000
  Pt  Pt6       1.0  0.00419029613324089  0.002522647099822233  0.9990621526344872  1.0000
  Pt  Pt7       1.0  2.3629350242923497e-05  2.264709982223315e-05  0.9992314224399126  1.0000
  Pt  Pt8       1.0  0.0033569626888299282  2.264709982223315e-05  0.9994006918580789  1.0000
  Pt  Pt9       1.0  0.006690295971127595  2.264709982223315e-05  0.9990621528032485  1.0000
  Pt  Pt10      1.0  0.005856963022062814  0.007522647099822234  0.99940069223379  1.0000
  Pt  Pt11      1.0  0.009190296079203126  0.007522647099822234  0.9990621526358593  1.0000
  Pt  Pt12      1.0  0.0025236295146077925  0.007522647099822234  0.9992314222710942  1.0000
  Pt  Pt13      1.0  0.009190296079203126  0.007522647099822234  0.9993160574218893  1.0000
  Pt  Pt14      1.0  0.0025236295146077925  0.007522647099822234  0.9994853270571243  1.0000
  Pt  Pt15      1.0  0.005856963022062814  0.007522647099822234  0.9991467874477599  1.0000
  Pt  Pt16      1.0  0.008356962409634808  0.005022647099822234  0.9991467876279548  1.0000
  Pt  Pt17      1.0  0.0016902960701968308  0.005022647099822234  0.9993160572574729  1.0000
  Pt  Pt18      1.0  0.005023629352494496  0.005022647099822234  0.9994853266770684  1.0000
  V   V7        1.0  0.0003139610385887513  0.009813163065863668  0.9999613992240959  1.0000
  V   V8        1.0  0.0033569626888299282  2.264709982223315e-05  0.999654596644109  1.0000
  V   V9        1.0  0.006718003413769053  0.00990971699696927  0.9998154208389672  1.0000
  V   V10       1.0  0.00835033809963781  0.004893500080939377  0.9998881428531293  1.0000
  V   V11       1.0  0.0016902960701968308  0.005022647099822234  0.9995699614946858  1.0000
  V   V12       1.0  0.004981580196723423  0.004997148385858992  0.9997502767870428  1.0000
  Pt  Pt19      1.0  0.0008569627383645465  0.002522647099822233  0.9996545964782062  1.0000
  Pt  Pt20      1.0  0.00418273988887466  0.0024463186448350186  0.9998240982238452  1.0000
  Pt  Pt21      1.0  0.007571976646453035  0.0024660604988113906  0.9999811663510948  1.0000
  Pt  Pt22      1.0  0.007527043902176564  0.0024754586939382405  0.9997329657313085  1.0000
  Pt  Pt23      1.0  0.0009425495735412634  0.0023365375895953934  0.9999043194180424  1.0000
  Pt  Pt24      1.0  0.00419029613324089  0.002522647099822233  0.9995699616577303  1.0000
  Pt  Pt25      1.0  0.009976370935706918  0.009977352900177767  0.9997406500855258  1.0000
  Pt  Pt26      1.0  0.0033796372942129314  7.250869635752197e-05  0.999913358340088  1.0000
  Pt  Pt27      1.0  0.006690295971127595  2.264709982223315e-05  0.9995699618264916  1.0000
  Pt  Pt28      1.0  0.005912116433597632  0.0075868608787018526  0.9999099557149549  1.0000
  Pt  Pt29      1.0  0.009190296079203126  0.007522647099822234  0.9995699616591023  1.0000
  Pt  Pt30      1.0  0.0025252878400257167  0.007412698357680098  0.9997327835799376  1.0000
  Pt  Pt31      1.0  0.009127616005281744  0.007613308569381534  0.9998433182738576  1.0000
  Pt  Pt32      1.0  0.002706724535100591  0.007454049573119734  0.9999759892262615  1.0000
  Pt  Pt33      1.0  0.005856963022062814  0.007522647099822234  0.999654596471003  1.0000
  Pt  Pt34      1.0  0.008356962409634808  0.005022647099822234  0.9996545966511979  1.0000
  Pt  Pt35      1.0  0.001504845979309408  0.005066343121501995  0.9998444536221113  1.0000
  Pt  Pt36      1.0  0.005152220179644818  0.005072367671613962  0.9999861444010959  1.0000
