data_image0
_chemical_formula_structural       COMo6Re6V12
_chemical_formula_sum              "C1 O1 Mo6 Re6 V12"
_cell_length_a       6.110072135925293
_cell_length_b       7.483279584838201
_cell_length_c       102.90374755859375
_cell_angle_alpha    94.34775331128766
_cell_angle_beta     90.0
_cell_angle_gamma    114.09484230375759

_space_group_name_H-M_alt    "P 1"
_space_group_IT_number       1

loop_
  _space_group_symop_operation_xyz
  'x, y, z'

loop_
  _atom_site_type_symbol
  _atom_site_label
  _atom_site_symmetry_multiplicity
  _atom_site_fract_x
  _atom_site_fract_y
  _atom_site_fract_z
  _atom_site_occupancy
  C   C1        1.0  0.004224433197849809  0.002901351519102214  0.00015862745349546432  1.0000
  O   O1        1.0  0.004224433197849809  0.002901351519102214  0.0002752415186135711  1.0000
  Mo  Mo1       1.0  0.007048931793492144  0.0035871439010999864  0.9997594728963565  1.0000
  Mo  Mo2       1.0  0.0028609806329487684  0.00521193476695841  0.999495146036432  1.0000
  Mo  Mo3       1.0  0.0009435712143643437  0.0013773895311455248  7.593516652768986e-06  1.0000
  Mo  Mo4       1.0  0.009944313715343368  0.009378601579550264  0.9996283764279067  1.0000
  Mo  Mo5       1.0  0.005777647478246914  0.001045267885964124  0.9993619159341938  1.0000
  Mo  Mo6       1.0  0.004125036150342038  0.0077391030964600975  0.9999048308654036  1.0000
  Re  Re1       1.0  0.0020327724782582134  0.0035549586417666463  0.9997648056476761  1.0000
  Re  Re2       1.0  0.007860980918744057  0.00521193476695841  0.999495146036432  1.0000
  Re  Re3       1.0  0.006248577724101851  0.0019841140376096137  7.648943830762422e-06  1.0000
  Re  Re4       1.0  0.004944313982085638  0.009378601579550264  0.9996283764279067  1.0000
  Re  Re5       1.0  0.0007776472496106836  0.001045267885964124  0.9993619159341938  1.0000
  Re  Re6       1.0  0.009091582389249044  0.0076723073011787995  0.99989486598625  1.0000
  V   V1        1.0  0.005164215750552398  0.004708682208352869  0.9999539377519365  1.0000
  V   V2        1.0  0.0009859804716186916  0.006461934482404294  0.9996949914326196  1.0000
  V   V3        1.0  0.006819313888859008  0.008128601316884925  0.9994285310287021  1.0000
  V   V4        1.0  0.0047359804825630805  0.003961934504293072  0.9992953006372275  1.0000
  V   V5        1.0  0.0030764877361462014  0.0006213986749067818  0.9998263647041383  1.0000
  V   V6        1.0  0.008902647506975935  0.0022952679434221665  0.999561761332267  1.0000
  V   V7        1.0  0.009735980787411388  0.003961934504293072  0.9992953006372275  1.0000
  V   V8        1.0  0.008055612815002423  0.0006214282931596623  0.9998263509659714  1.0000
  V   V9        1.0  0.003902647202127628  0.0022952679434221665  0.999561761332267  1.0000
  V   V10       1.0  5.5686006133086296e-05  0.004708857318577752  0.9999539178651377  1.0000
  V   V11       1.0  0.005985980471618691  0.006461934482404294  0.9996949914326196  1.0000
  V   V12       1.0  0.0018193138888590076  0.008128601316884925  0.9994285310287021  1.0000
