data_image0
_chemical_formula_structural       COAl2Cu6Al2Cu6
_chemical_formula_sum              "C1 O1 Al4 Cu12"
_cell_length_a       4.575989246368408
_cell_length_b       5.252284049987793
_cell_length_c       100.08472442626953
_cell_angle_alpha    90.0
_cell_angle_beta     90.0
_cell_angle_gamma    90.0

_space_group_name_H-M_alt    "P 1"
_space_group_IT_number       1

loop_
  _space_group_symop_operation_xyz
  'x, y, z'

loop_
  _atom_site_type_symbol
  _atom_site_label
  _atom_site_symmetry_multiplicity
  _atom_site_fract_x
  _atom_site_fract_y
  _atom_site_fract_z
  _atom_site_occupancy
  C   C1        1.0  0.0032755888642735484  0.005000001900845024  0.000168328720821783  1.0000
  O   O1        1.0  0.0032755888642735484  0.005000001900845024  0.000288227380557168  1.0000
  Al  Al1       1.0  0.0066663062396414546  3.9000000206120324e-09  0.9995666054155815  1.0000
  Al  Al2       1.0  0.0033349773033550093  0.005000004028656618  0.9993518964888185  1.0000
  Cu  Cu1       1.0  0.006676220289437501  0.005000004028656618  0.9995666054155815  1.0000
  Cu  Cu2       1.0  0.003325063050035195  3.9000000206120324e-09  0.9993518964888185  1.0000
  Cu  Cu3       1.0  0.0016577620472719608  0.00250990059386257  0.9995666054155815  1.0000
  Cu  Cu4       1.0  0.0016577620472719608  0.007490107463450666  0.9995666054155815  1.0000
  Cu  Cu5       1.0  0.00834352119043885  0.00249010733578197  0.9993518964888185  1.0000
  Cu  Cu6       1.0  0.00834352119043885  0.0075099003668960005  0.9993518964888185  1.0000
  Al  Al3       1.0  0.006581361931559743  1.550000052418971e-08  0.0  1.0000
  Al  Al4       1.0  0.0033795496191598123  0.00500001360380879  0.9997807220759466  1.0000
  Cu  Cu7       1.0  0.006591443684940778  0.005000000836939227  0.9999976988261822  1.0000
  Cu  Cu8       1.0  0.003399338031617108  0.009999996708984736  0.9997762641472164  1.0000
  Cu  Cu9       1.0  0.001617648021371233  0.002483806708335157  0.9999940523232613  1.0000
  Cu  Cu10      1.0  0.001617674886508634  0.007516197979943055  0.9999940594697638  1.0000
  Cu  Cu11      1.0  0.008382336429412877  0.002484450548659908  0.999780069064277  1.0000
  Cu  Cu12      1.0  0.008382351897219259  0.007515553962300672  0.9997800747219249  1.0000
