data_image0
_chemical_formula_structural       Co4Sn8H
_chemical_formula_sum              "Co4 Sn8 H1"
_cell_length_a       5.318878908825051
_cell_length_b       5.318878940220188
_cell_length_c       103.6375961303711
_cell_angle_alpha    85.58286169710144
_cell_angle_beta     85.58286167097712
_cell_angle_gamma    74.44065766466719

_space_group_name_H-M_alt    "P 1"
_space_group_IT_number       1

loop_
  _space_group_symop_operation_xyz
  'x, y, z'

loop_
  _atom_site_type_symbol
  _atom_site_label
  _atom_site_symmetry_multiplicity
  _atom_site_fract_x
  _atom_site_fract_y
  _atom_site_fract_z
  _atom_site_occupancy
  Co  Co1       1.0  0.00906253804755606  0.0090530563130791  0.9995655729123414  1.0000
  Co  Co2       1.0  0.0030326052202909004  0.002895273140671485  0.9999479536578977  1.0000
  Co  Co3       1.0  0.0009417477444288361  0.0009469435558289828  0.9997593625601031  1.0000
  Co  Co4       1.0  0.00718753822542079  0.007178055905237579  0.9993627172608619  1.0000
  Sn  Sn1       1.0  0.005816320286834541  0.0024944911025177475  0.999396952349544  1.0000
  Sn  Sn2       1.0  0.009566244735196343  0.006402060214933879  0.9998096670130092  1.0000
  Sn  Sn3       1.0  0.004378972587773452  0.007681839229618597  0.9995998082878034  1.0000
  Sn  Sn4       1.0  0.008164242189527167  0.0020995985508132312  4.579489462490839e-06  1.0000
  Sn  Sn5       1.0  0.0004337553415264518  0.003736621428962956  0.99953133823906  1.0000
  Sn  Sn6       1.0  0.0038992757309114128  0.0077632101674471425  0.9999539020102763  1.0000
  Sn  Sn7       1.0  0.001871103127742207  0.00854927371698651  0.9993284822355515  1.0000
  Sn  Sn8       1.0  0.005676572917266913  0.002293713271249289  0.9997303687229534  1.0000
  H   H1        1.0  0.004202817887120298  0.004317398677717198  2.2143497600140293e-05  1.0000
