data_image0
_chemical_formula_structural       HSi8Ir8Si8Ir8Si8Ir8
_chemical_formula_sum              "H1 Si24 Ir24"
_cell_length_a       6.391407012939453
_cell_length_b       11.681501077843004
_cell_length_c       102.3944091796875
_cell_angle_alpha    106.09994637914272
_cell_angle_beta     90.0
_cell_angle_gamma    90.0

_space_group_name_H-M_alt    "P 1"
_space_group_IT_number       1

loop_
  _space_group_symop_operation_xyz
  'x, y, z'

loop_
  _atom_site_type_symbol
  _atom_site_label
  _atom_site_symmetry_multiplicity
  _atom_site_fract_x
  _atom_site_fract_y
  _atom_site_fract_z
  _atom_site_occupancy
  H   H1        1.0  0.008189401813574288  0.0004677684711801541  0.00023991810100879612  1.0000
  Si  Si1       1.0  0.009439627193564906  0.0015854970091955403  0.9994062083209538  1.0000
  Si  Si2       1.0  0.009439627193564906  0.006585496949449341  0.9992480238564587  1.0000
  Si  Si3       1.0  0.0006493854237138229  0.0034145029310582607  0.999305887922119  1.0000
  Si  Si4       1.0  0.0006493854237138229  0.008414502705350397  0.9994640723775834  1.0000
  Si  Si5       1.0  0.0056493854062280476  0.004085496896341608  0.999485300548686  1.0000
  Si  Si6       1.0  0.0056493854062280476  0.009085497002557074  0.9993271160894414  1.0000
  Si  Si7       1.0  0.004439627065335885  0.0009145028779505276  0.9992267956891364  1.0000
  Si  Si8       1.0  0.004439627065335885  0.005914502652242663  0.9993849801446008  1.0000
  Ir  Ir1       1.0  0.0029897266591846824  0.002491730847184751  0.9994348787434852  1.0000
  Ir  Ir2       1.0  0.0029897266591846824  0.007491730621476887  0.9992766942737396  1.0000
  Ir  Ir3       1.0  0.007099286103808844  0.002508268927107385  0.9992772174943373  1.0000
  Ir  Ir4       1.0  0.007099286103808844  0.007508269033322851  0.9994354019603026  1.0000
  Ir  Ir5       1.0  0.002099285829865026  0.004991730900292484  0.9995139709764679  1.0000
  Ir  Ir6       1.0  0.002099285829865026  0.00999173067458462  0.9993557865067222  1.0000
  Ir  Ir7       1.0  0.007989727078843297  8.268999767476422e-06  0.9995144941905435  1.0000
  Ir  Ir8       1.0  0.007989727078843297  0.005008268980215118  0.9993563097273199  1.0000
  Si  Si9       1.0  0.009439627193564906  0.0015854970091955403  0.999722577537218  1.0000
  Si  Si10      1.0  0.009439627193564906  0.006585496949449341  0.9995643927816686  1.0000
  Si  Si11      1.0  0.0006493854237138229  0.0034145029310582607  0.9996222568473291  1.0000
  Si  Si12      1.0  0.0006493854237138229  0.008414502705350397  0.9997804413027933  1.0000
  Si  Si13      1.0  0.0056493854062280476  0.004085496896341608  0.9998016697649501  1.0000
  Si  Si14      1.0  0.0056493854062280476  0.009085497002557074  0.9996434850146513  1.0000
  Si  Si15      1.0  0.004439627065335885  0.0009145028779505276  0.9995431646143464  1.0000
  Si  Si16      1.0  0.004439627065335885  0.005914502652242663  0.9997013490698107  1.0000
  Ir  Ir9       1.0  0.0029897266591846824  0.002491730847184751  0.9997512479597493  1.0000
  Ir  Ir10      1.0  0.0029897266591846824  0.007491730621476887  0.9995930631989495  1.0000
  Ir  Ir11      1.0  0.007099286103808844  0.002508268927107385  0.9995935864195472  1.0000
  Ir  Ir12      1.0  0.007099286103808844  0.007508269033322851  0.9997517708855125  1.0000
  Ir  Ir13      1.0  0.002099285829865026  0.004991730900292484  0.999830340192732  1.0000
  Ir  Ir14      1.0  0.002099285829865026  0.00999173067458462  0.9996721554319321  1.0000
  Ir  Ir15      1.0  0.007989727078843297  8.268999767476422e-06  0.9998308634068076  1.0000
  Ir  Ir16      1.0  0.007989727078843297  0.005008268980215118  0.9996726786525298  1.0000
  Si  Si17      1.0  0.009546476356955875  0.0016687327588400796  5.279351893769021e-05  1.0000
  Si  Si18      1.0  0.009386690173579756  0.006541197134119798  0.9998855867207868  1.0000
  Si  Si19      1.0  0.0006074061200247327  0.0034281453118490323  0.999938643787062  1.0000
  Si  Si20      1.0  0.0004535240087882669  0.008448274576495572  8.821129995738184e-05  1.0000
  Si  Si21      1.0  0.005410695826064225  0.004088015862493798  0.00010391319135587606  1.0000
  Si  Si22      1.0  0.005542612597390641  0.009085617822649234  0.999965600552565  1.0000
  Si  Si23      1.0  0.004486043348161023  0.0008911587931248599  0.9998631581986985  1.0000
  Si  Si24      1.0  0.0044774747352457735  0.005992103671435288  2.2918564350558784e-05  1.0000
  Ir  Ir17      1.0  0.0029596292678908116  0.0024161304958643525  4.280871274089071e-05  1.0000
  Ir  Ir18      1.0  0.0029300471241186796  0.007460481367640532  0.999915980343267  1.0000
  Ir  Ir19      1.0  0.007156440110015465  0.002492702884656972  0.9999191122032887  1.0000
  Ir  Ir20      1.0  0.007057428654118638  0.007552170540656264  5.449955249836451e-05  1.0000
  Ir  Ir21      1.0  0.00212233441357502  0.004961460156433288  0.00011966833288788157  1.0000
  Ir  Ir22      1.0  0.002092207005032994  0.009919114479963558  0.9999794952139098  1.0000
  Ir  Ir23      1.0  0.008189401813574288  3.980209861751756e-05  0.00011268873135561759  1.0000
  Ir  Ir24      1.0  0.007900270433606948  0.004994109794799368  0.9999883501916671  1.0000
