data_image0
_chemical_formula_structural       COV4Ni12V4Ni12
_chemical_formula_sum              "C1 O1 V8 Ni24"
_cell_length_a       5.028222560882568
_cell_length_b       8.08124077149075
_cell_length_c       105.19755554199219
_cell_angle_alpha    108.12581218779695
_cell_angle_beta     90.0
_cell_angle_gamma    71.87418781220306

_space_group_name_H-M_alt    "P 1"
_space_group_IT_number       1

loop_
  _space_group_symop_operation_xyz
  'x, y, z'

loop_
  _atom_site_type_symbol
  _atom_site_label
  _atom_site_symmetry_multiplicity
  _atom_site_fract_x
  _atom_site_fract_y
  _atom_site_fract_z
  _atom_site_occupancy
  C   C1        1.0  0.008385531780481256  0.0032389795193867783  0.00011795731270438987  1.0000
  O   O1        1.0  0.008385531780481256  0.0032389795193867783  0.00023202806893275312  1.0000
  V   V1        1.0  4.016700370831367e-06  3.2058999295515948e-06  0.9995278523793459  1.0000
  V   V2        1.0  0.005004016906991357  3.2058999295515948e-06  0.9992888630794033  1.0000
  V   V3        1.0  0.00750401729560047  0.005003205745047313  0.9994083578333266  1.0000
  V   V4        1.0  0.002504016984432476  0.005003205745047313  0.9991693682500854  1.0000
  Ni  Ni1       1.0  0.0012540168237151481  0.0025032057553139755  0.999229115663139  1.0000
  Ni  Ni2       1.0  0.006254017320102185  0.0025032057553139755  0.9994681052463802  1.0000
  Ni  Ni3       1.0  0.006254017320102185  0.0025032057553139755  0.999229115663139  1.0000
  Ni  Ni4       1.0  0.0012540168237151481  0.0025032057553139755  0.9994681052463802  1.0000
  Ni  Ni5       1.0  4.016700370831367e-06  3.2058999295515948e-06  0.9992888630794033  1.0000
  Ni  Ni6       1.0  0.005004016906991357  3.2058999295515948e-06  0.9995278523793459  1.0000
  Ni  Ni7       1.0  0.003754017202035558  0.00750320599144723  0.9993486104264071  1.0000
  Ni  Ni8       1.0  0.008754016401889289  0.00750320599144723  0.9991096208431659  1.0000
  Ni  Ni9       1.0  0.008754016401889289  0.00750320599144723  0.9993486104264071  1.0000
  Ni  Ni10      1.0  0.003754017202035558  0.00750320599144723  0.9991096208431659  1.0000
  Ni  Ni11      1.0  0.00750401729560047  0.005003205745047313  0.9991693682500854  1.0000
  Ni  Ni12      1.0  0.002504016984432476  0.005003205745047313  0.9994083578333266  1.0000
  V   V5        1.0  2.769274315458753e-05  0.0099553748807178  0.9999856948938998  1.0000
  V   V6        1.0  0.005006928459396661  0.00999679368001955  0.9997749830662799  1.0000
  V   V7        1.0  0.007552053208652271  0.004907082057611455  0.9998751909120445  1.0000
  V   V8        1.0  0.002504016984432476  0.005003205745047313  0.9996473471332691  1.0000
  Ni  Ni13      1.0  0.0012540168237151481  0.0025032057553139755  0.9997070945463227  1.0000
  Ni  Ni14      1.0  0.006227198319887558  0.0024578671440068215  0.9999436979772319  1.0000
  Ni  Ni15      1.0  0.006254017320102185  0.0025032057553139755  0.9997070945463227  1.0000
  Ni  Ni16      1.0  0.0013251528530499991  0.002457516537458931  0.9999437201943541  1.0000
  Ni  Ni17      1.0  0.009995983884947672  1.6679499740055277e-05  0.9997688263638022  1.0000
  Ni  Ni18      1.0  0.004982025217977177  4.5973500154570776e-05  1.0987184516263585e-06  1.0000
  Ni  Ni19      1.0  0.003761965201789365  0.00747682066705254  0.9998308342972646  1.0000
  Ni  Ni20      1.0  0.008754016401889289  0.00750320599144723  0.9995876000096482  1.0000
  Ni  Ni21      1.0  0.008774488955051068  0.007476648700444131  0.9998308562509161  1.0000
  Ni  Ni22      1.0  0.003754017202035558  0.00750320599144723  0.9995876000096482  1.0000
  Ni  Ni23      1.0  0.00750401729560047  0.005003205745047313  0.9996473471332691  1.0000
  Ni  Ni24      1.0  0.0025066319135125053  0.004998719726567056  0.9998871394605419  1.0000
