data_image0
_chemical_formula_structural       CORh4V4Rh4V4Rh4V4Rh4V4
_chemical_formula_sum              "C1 O1 Rh16 V16"
_cell_length_a       5.609452724456787
_cell_length_b       8.906332084180109
_cell_length_c       105.28726959228516
_cell_angle_alpha    90.75512864576339
_cell_angle_beta     90.0
_cell_angle_gamma    90.0

_space_group_name_H-M_alt    "P 1"
_space_group_IT_number       1

loop_
  _space_group_symop_operation_xyz
  'x, y, z'

loop_
  _atom_site_type_symbol
  _atom_site_label
  _atom_site_symmetry_multiplicity
  _atom_site_fract_x
  _atom_site_fract_y
  _atom_site_fract_z
  _atom_site_occupancy
  C   C1        1.0  0.0008335411442339365  0.0002917783423726368  0.0001136993260037976  1.0000
  O   O1        1.0  0.0008335411442339365  0.0002917783423726368  0.0002276734499901448  1.0000
  Rh  Rh1       1.0  0.002499994355070077  0.003535625897862051  0.9998450112181234  1.0000
  Rh  Rh2       1.0  0.0025001982366567137  0.003991406342446661  0.9994321204857134  1.0000
  Rh  Rh3       1.0  0.002500314787856892  0.0011314062649755226  1.2613259783405398e-06  1.0000
  Rh  Rh4       1.0  0.0025001982366567137  0.001581939211191879  0.999611573171513  1.0000
  V   V1        1.0  1.9815001524364555e-07  0.0014901241992864222  0.9993976924100809  1.0000
  V   V2        1.0  0.009999802095397987  0.000861681314122008  0.9998212215548397  1.0000
  V   V3        1.0  1.9815001524364555e-07  0.0047082214380142545  0.9992270611507845  1.0000
  V   V4        1.0  1.9815001524364555e-07  0.004083221354352118  0.9996460018132598  1.0000
  Rh  Rh5       1.0  0.002499994355070077  0.00853562614884846  0.9998450114069901  1.0000
  Rh  Rh6       1.0  0.0025001982366567137  0.00899140659343307  0.9994321203915228  1.0000
  Rh  Rh7       1.0  0.002500314787856892  0.006131405993073579  1.2615142620923552e-06  1.0000
  Rh  Rh8       1.0  0.0025001982366567137  0.006581939148445276  0.9996115733600298  1.0000
  V   V5        1.0  1.9815001524364555e-07  0.00649012413653982  0.9993976923155405  1.0000
  V   V6        1.0  0.009999802095397987  0.005861681355953077  0.9998212217434732  1.0000
  V   V7        1.0  1.9815001524364555e-07  0.009708221270689982  0.9992270613391848  1.0000
  V   V8        1.0  1.9815001524364555e-07  0.009083221605338528  0.9996460014360121  1.0000
  Rh  Rh9       1.0  0.0074999946871247775  0.003535625897862051  0.9998450112181234  1.0000
  Rh  Rh10      1.0  0.007500198568711415  0.003991406342446661  0.9994321204857134  1.0000
  Rh  Rh11      1.0  0.007500314787856892  0.0011314062649755226  1.2613259783405398e-06  1.0000
  Rh  Rh12      1.0  0.007500198568711415  0.001581939211191879  0.999611573171513  1.0000
  V   V9        1.0  0.005000198236656713  0.0014901241992864222  0.9993976924100809  1.0000
  V   V10       1.0  0.0049998020953979875  0.000861681314122008  0.9998212215548397  1.0000
  V   V11       1.0  0.005000198236656713  0.0047082214380142545  0.9992270611507845  1.0000
  V   V12       1.0  0.005000198236656713  0.004083221354352118  0.9996460018132598  1.0000
  Rh  Rh13      1.0  0.0074999946871247775  0.00853562614884846  0.9998450114069901  1.0000
  Rh  Rh14      1.0  0.007500198568711415  0.00899140659343307  0.9994321203915228  1.0000
  Rh  Rh15      1.0  0.007500314787856892  0.006131405993073579  1.2615142620923552e-06  1.0000
  Rh  Rh16      1.0  0.007500198568711415  0.006581939148445276  0.9996115733600298  1.0000
  V   V13       1.0  0.005000198236656713  0.00649012413653982  0.9993976923155405  1.0000
  V   V14       1.0  0.0049998020953979875  0.005861681355953077  0.9998212217434732  1.0000
  V   V15       1.0  0.005000198236656713  0.009708221270689982  0.9992270613391848  1.0000
  V   V16       1.0  0.005000198236656713  0.009083221605338528  0.9996460014360121  1.0000
