data_image0
_chemical_formula_structural       In4Pd8In4Pd8CO
_chemical_formula_sum              "In8 Pd16 C1 O1"
_cell_length_a       8.610406875610352
_cell_length_b       5.760644912719727
_cell_length_c       36.21834182739258
_cell_angle_alpha    90.0
_cell_angle_beta     90.0
_cell_angle_gamma    90.0

_space_group_name_H-M_alt    "P 1"
_space_group_IT_number       1

loop_
  _space_group_symop_operation_xyz
  'x, y, z'

loop_
  _atom_site_type_symbol
  _atom_site_label
  _atom_site_symmetry_multiplicity
  _atom_site_fract_x
  _atom_site_fract_y
  _atom_site_fract_z
  _atom_site_occupancy
  In  In1       1.0  0.0012500002725693365  0.0032495693968925283  0.9984958004383574  1.0000
  In  In2       1.0  0.003750000276895834  0.006808807036500777  0.9980284795341917  1.0000
  In  In3       1.0  0.0012500002725693365  0.008249569901302448  0.9991943821534773  1.0000
  In  In4       1.0  0.003750000276895834  0.0018765258270708556  0.9997108194841476  1.0000
  Pd  Pd1       1.0  0.0012499998399195962  0.004396539674494088  0.0  1.0000
  Pd  Pd2       1.0  0.003750000276895834  0.005701095047549248  0.9988007920486937  1.0000
  Pd  Pd3       1.0  0.0012499999480820312  0.009298905495661432  0.9999200974018058  1.0000
  Pd  Pd4       1.0  0.003750000276895834  0.0007010947048091755  0.9988893909545669  1.0000
  Pd  Pd5       1.0  0.003750000276895834  0.001622820086480382  0.998093751830022  1.0000
  Pd  Pd6       1.0  0.0012500002725693365  0.008435556185243078  0.9984305281425271  1.0000
  Pd  Pd7       1.0  0.003750000276895834  0.0066198744812907065  0.9996112935197681  1.0000
  Pd  Pd8       1.0  0.0012500003807317714  0.003425335883202212  0.9992543392390647  1.0000
  In  In5       1.0  0.006250000173059897  0.0032495693968925283  0.9984958004383574  1.0000
  In  In6       1.0  0.008750000069223959  0.006808807036500777  0.9980284795341917  1.0000
  In  In7       1.0  0.006250000173059897  0.008249569901302448  0.9991943821534773  1.0000
  In  In8       1.0  0.008750000069223959  0.0018765258270708556  0.9997108194841476  1.0000
  Pd  Pd9       1.0  0.006250000173059897  0.004396539674494088  0.0  1.0000
  Pd  Pd10      1.0  0.008750000069223959  0.005701095047549248  0.9988007920486937  1.0000
  Pd  Pd11      1.0  0.006250000173059897  0.009298905495661432  0.9999200974018058  1.0000
  Pd  Pd12      1.0  0.008750000069223959  0.0007010947048091755  0.9988893909545669  1.0000
  Pd  Pd13      1.0  0.008750000069223959  0.001622820086480382  0.998093751830022  1.0000
  Pd  Pd14      1.0  0.006250000173059897  0.008435556185243078  0.9984305281425271  1.0000
  Pd  Pd15      1.0  0.008750000069223959  0.0066198744812907065  0.9996112935197681  1.0000
  Pd  Pd16      1.0  0.0062500006057096364  0.003425335883202212  0.9992543392390647  1.0000
  C   C1        1.0  0.0050000002249778654  0.007434722191296576  0.9999550443228713  1.0000
  O   O1        1.0  0.0050000002249778654  0.007434722191296576  0.00028636800890754685  1.0000
