data_image0
_chemical_formula_structural       COAl12Au12Al12Au12
_chemical_formula_sum              "C1 O1 Al24 Au24"
_cell_length_a       6.858351707458496
_cell_length_b       14.682398988819338
_cell_length_c       105.78298950195312
_cell_angle_alpha    107.34126416736636
_cell_angle_beta     90.0
_cell_angle_gamma    90.0

_space_group_name_H-M_alt    "P 1"
_space_group_IT_number       1

loop_
  _space_group_symop_operation_xyz
  'x, y, z'

loop_
  _atom_site_type_symbol
  _atom_site_label
  _atom_site_symmetry_multiplicity
  _atom_site_fract_x
  _atom_site_fract_y
  _atom_site_fract_z
  _atom_site_occupancy
  C   C1        1.0  0.0006249998750695785  0.00711371097318456  0.00023057768798763215  1.0000
  O   O1        1.0  0.0006249998750695785  0.00711371097318456  0.0003440177067958878  1.0000
  Al  Al1       1.0  0.0018749998967966084  0.005764244479299393  0.9997375623447331  1.0000
  Al  Al2       1.0  0.0018749998967966084  0.00909757852145082  0.9994556723351037  1.0000
  Al  Al3       1.0  0.0018749998967966084  0.0024345554455942418  2.6139021340546143e-05  1.0000
  Al  Al4       1.0  0.004374999804456731  0.007469328555048798  0.00011193299135054412  1.0000
  Al  Al5       1.0  0.004374999804456731  0.0009024221430661429  0.9998447558244294  1.0000
  Al  Al6       1.0  0.004374999804456731  0.004235755520700607  0.999562865505578  1.0000
  Al  Al7       1.0  0.0018749996252087357  0.008669826825816176  0.9999196872780334  1.0000
  Al  Al8       1.0  0.0018749998967966084  0.0020075652863993684  0.9996332202138838  1.0000
  Al  Al9       1.0  0.0018749998967966084  0.005340898796937226  0.999351330463992  1.0000
  Al  Al10      1.0  0.004374999804456731  0.004611427161285603  0.9999683709784836  1.0000
  Al  Al11      1.0  0.004374999804456731  0.007992434713600631  0.9996672076364274  1.0000
  Al  Al12      1.0  0.004374999804456731  0.0013257680912350956  0.9993853176105759  1.0000
  Au  Au1       1.0  0.0018749998967966084  0.006021370546566797  6.156351763177395e-06  1.0000
  Au  Au2       1.0  0.0018749998967966084  0.009432688578218643  0.9997169287844332  1.0000
  Au  Au3       1.0  0.0018749998967966084  0.0027660220887565003  0.9994350390458108  1.0000
  Au  Au4       1.0  0.004374999804456731  0.007186983803223024  0.9998555787224664  1.0000
  Au  Au5       1.0  0.004374999804456731  0.0005673114217813563  0.999583499065878  1.0000
  Au  Au6       1.0  0.004375000076044604  0.0037188296357128637  0.00015384900055385005  1.0000
  Au  Au7       1.0  0.0018749998967966084  0.00728466194905696  0.9994543156198  1.0000
  Au  Au8       1.0  0.0018749998967966084  0.0006500831230978867  1.9446282387922785e-05  1.0000
  Au  Au9       1.0  0.0018749998967966084  0.003951328704325888  0.9997362053806882  1.0000
  Au  Au10      1.0  0.004374999804456731  0.006048671561480897  0.9995642224806194  1.0000
  Au  Au11      1.0  0.0043749995328688585  0.009251334987998293  0.00011308293127436252  1.0000
  Au  Au12      1.0  0.004374999804456731  0.00271533805094304  0.9998461122305111  1.0000
  Al  Al13      1.0  0.006874999847910791  0.005764244479299393  0.9997375623447331  1.0000
  Al  Al14      1.0  0.006874999847910791  0.00909757852145082  0.9994556723351037  1.0000
  Al  Al15      1.0  0.006874999847910791  0.0024345554455942418  2.6139021340546143e-05  1.0000
  Al  Al16      1.0  0.009374999348189104  0.007469328555048798  0.00011193299135054412  1.0000
  Al  Al17      1.0  0.009374999348189104  0.0009024221430661429  0.9998447558244294  1.0000
  Al  Al18      1.0  0.009374999348189104  0.004235755520700607  0.999562865505578  1.0000
  Al  Al19      1.0  0.006874999847910791  0.008669826825816176  0.9999196872780334  1.0000
  Al  Al20      1.0  0.006874999847910791  0.0020075652863993684  0.9996332202138838  1.0000
  Al  Al21      1.0  0.006874999847910791  0.005340898796937226  0.999351330463992  1.0000
  Al  Al22      1.0  0.009375000434540596  0.004611427161285603  0.9999683709784836  1.0000
  Al  Al23      1.0  0.009374999348189104  0.007992434713600631  0.9996672076364274  1.0000
  Al  Al24      1.0  0.009374999348189104  0.0013257680912350956  0.9993853176105759  1.0000
  Au  Au13      1.0  0.006874999847910791  0.006021370546566797  6.156351763177395e-06  1.0000
  Au  Au14      1.0  0.006874999847910791  0.009432688578218643  0.9997169287844332  1.0000
  Au  Au15      1.0  0.006874999847910791  0.0027660220887565003  0.9994350390458108  1.0000
  Au  Au16      1.0  0.009374999348189104  0.007186983803223024  0.9998555787224664  1.0000
  Au  Au17      1.0  0.009374999348189104  0.0005673114217813563  0.999583499065878  1.0000
  Au  Au18      1.0  0.009375000434540596  0.0037188296357128637  0.00015384900055385005  1.0000
  Au  Au19      1.0  0.006874999847910791  0.00728466194905696  0.9994543156198  1.0000
  Au  Au20      1.0  0.006874999847910791  0.0006500831230978867  1.9446282387922785e-05  1.0000
  Au  Au21      1.0  0.006874999847910791  0.003951328704325888  0.9997362053806882  1.0000
  Au  Au22      1.0  0.009374999348189104  0.006048671561480897  0.9995642224806194  1.0000
  Au  Au23      1.0  0.009374999348189104  0.009251334987998293  0.00011308293127436252  1.0000
  Au  Au24      1.0  0.009374999348189104  0.00271533805094304  0.9998461122305111  1.0000
