data_image0
_chemical_formula_structural       COVPd3VPd3VPd3VPd3VPd3VPd3VPd3VPd3
_chemical_formula_sum              "C1 O1 V8 Pd24"
_cell_length_a       7.829465389251709
_cell_length_b       7.829465389251709
_cell_length_c       101.31786346435547
_cell_angle_alpha    90.0
_cell_angle_beta     90.0
_cell_angle_gamma    90.0

_space_group_name_H-M_alt    "P 1"
_space_group_IT_number       1

loop_
  _space_group_symop_operation_xyz
  'x, y, z'

loop_
  _atom_site_type_symbol
  _atom_site_label
  _atom_site_symmetry_multiplicity
  _atom_site_fract_x
  _atom_site_fract_y
  _atom_site_fract_z
  _atom_site_occupancy
  C   C1        1.0  0.0037500000380643137  0.0037500000380643137  0.00017095222039866914  1.0000
  O   O1        1.0  0.0037500000380643137  0.0037500000380643137  0.0002893915943489181  1.0000
  V   V1        1.0  0.001250000052338431  0.001250000052338431  0.9998068096954165  1.0000
  Pd  Pd1       1.0  0.0037500000380643137  0.0037500000380643137  0.9998068096954165  1.0000
  Pd  Pd2       1.0  0.0037500000380643137  0.001250000052338431  0.0  1.0000
  Pd  Pd3       1.0  0.001250000052338431  0.0037500000380643137  0.0  1.0000
  V   V2        1.0  0.001250000052338431  0.001250000052338431  0.9994204282038089  1.0000
  Pd  Pd4       1.0  0.0037500000380643137  0.0037500000380643137  0.9994204282038089  1.0000
  Pd  Pd5       1.0  0.0037500000380643137  0.001250000052338431  0.9996136188025393  1.0000
  Pd  Pd6       1.0  0.001250000052338431  0.0037500000380643137  0.9996136188025393  1.0000
  V   V3        1.0  0.001250000052338431  0.006249999904839217  0.9998068096954165  1.0000
  Pd  Pd7       1.0  0.0037500000380643137  0.008749999771614121  0.9998068096954165  1.0000
  Pd  Pd8       1.0  0.0037500000380643137  0.006249999904839217  0.0  1.0000
  Pd  Pd9       1.0  0.001250000052338431  0.008749999771614121  0.0  1.0000
  V   V4        1.0  0.001250000052338431  0.006249999904839217  0.9994204282038089  1.0000
  Pd  Pd10      1.0  0.0037500000380643137  0.008749999771614121  0.9994204282038089  1.0000
  Pd  Pd11      1.0  0.0037500000380643137  0.006249999904839217  0.9996136188025393  1.0000
  Pd  Pd12      1.0  0.001250000052338431  0.008749999771614121  0.9996136188025393  1.0000
  V   V5        1.0  0.006249999904839217  0.001250000052338431  0.9998068096954165  1.0000
  Pd  Pd13      1.0  0.008749999771614121  0.0037500000380643137  0.9998068096954165  1.0000
  Pd  Pd14      1.0  0.008749999771614121  0.001250000052338431  0.0  1.0000
  Pd  Pd15      1.0  0.006249999904839217  0.0037500000380643137  0.0  1.0000
  V   V6        1.0  0.006249999904839217  0.001250000052338431  0.9994204282038089  1.0000
  Pd  Pd16      1.0  0.008749999771614121  0.0037500000380643137  0.9994204282038089  1.0000
  Pd  Pd17      1.0  0.008749999771614121  0.001250000052338431  0.9996136188025393  1.0000
  Pd  Pd18      1.0  0.006249999904839217  0.0037500000380643137  0.9996136188025393  1.0000
  V   V7        1.0  0.006249999904839217  0.006249999904839217  0.9998068096954165  1.0000
  Pd  Pd19      1.0  0.008749999771614121  0.008749999771614121  0.9998068096954165  1.0000
  Pd  Pd20      1.0  0.008749999771614121  0.006249999904839217  0.0  1.0000
  Pd  Pd21      1.0  0.006249999904839217  0.008749999771614121  0.0  1.0000
  V   V8        1.0  0.006249999904839217  0.006249999904839217  0.9994204282038089  1.0000
  Pd  Pd22      1.0  0.008749999771614121  0.008749999771614121  0.9994204282038089  1.0000
  Pd  Pd23      1.0  0.008749999771614121  0.006249999904839217  0.9996136188025393  1.0000
  Pd  Pd24      1.0  0.006249999904839217  0.008749999771614121  0.9996136188025393  1.0000
