data_image0
_chemical_formula_structural       COCa8Ge4
_chemical_formula_sum              "C1 O1 Ca8 Ge4"
_cell_length_a       4.919729709625244
_cell_length_b       7.779783248901367
_cell_length_c       106.88442993164062
_cell_angle_alpha    90.0
_cell_angle_beta     90.0
_cell_angle_gamma    90.0

_space_group_name_H-M_alt    "P 1"
_space_group_IT_number       1

loop_
  _space_group_symop_operation_xyz
  'x, y, z'

loop_
  _atom_site_type_symbol
  _atom_site_label
  _atom_site_symmetry_multiplicity
  _atom_site_fract_x
  _atom_site_fract_y
  _atom_site_fract_z
  _atom_site_occupancy
  C   C1        1.0  0.002499863534816501  0.00457130179803263  8.221508768729001e-06  1.0000
  O   O1        1.0  0.002499863534816501  0.00457130179803263  0.00012049197437092224  1.0000
  Ca  Ca1       1.0  0.007499995335559148  0.0033835104109231112  0.9999963964329063  1.0000
  Ca  Ca2       1.0  0.002499709063073999  0.006553695562587908  0.9998673477990666  1.0000
  Ca  Ca3       1.0  0.007500019566420717  0.008449526108419855  0.9994271521702758  1.0000
  Ca  Ca4       1.0  0.0025000200888986696  0.0015186393025483059  0.9995550319590785  1.0000
  Ca  Ca5       1.0  0.007500019566420717  0.004785791123232864  0.9996439679057281  1.0000
  Ca  Ca6       1.0  0.0025000200888986696  0.005182374168024689  0.9993382165024538  1.0000
  Ca  Ca7       1.0  0.0075000513694265265  0.009817624893444152  0.9997739818405023  1.0000
  Ca  Ca8       1.0  0.0025000200888986696  0.00018237450082017663  0.9992126088792536  1.0000
  Ge  Ge1       1.0  0.00750029064918452  0.007329703770299548  0.0  1.0000
  Ge  Ge2       1.0  0.0025000180065590035  0.0025889085123197804  0.9998249966844059  1.0000
  Ge  Ge3       1.0  0.007500019566420717  0.0024607513643714754  0.999400025039159  1.0000
  Ge  Ge4       1.0  0.0025000200888986696  0.007507414166307292  0.9995821590901953  1.0000
