data_image0
_chemical_formula_structural       Ni3Rh6Sn3Ni3Rh6Sn3Ni3Rh6Sn3Ni3Rh6Sn3H
_chemical_formula_sum              "Ni12 Rh24 Sn12 H1"
_cell_length_a       8.806999206542969
_cell_length_b       8.80699934936547
_cell_length_c       102.35897827148438
_cell_angle_alpha    90.0
_cell_angle_beta     90.0
_cell_angle_gamma    119.99999946354825

_space_group_name_H-M_alt    "P 1"
_space_group_IT_number       1

loop_
  _space_group_symop_operation_xyz
  'x, y, z'

loop_
  _atom_site_type_symbol
  _atom_site_label
  _atom_site_symmetry_multiplicity
  _atom_site_fract_x
  _atom_site_fract_y
  _atom_site_fract_z
  _atom_site_occupancy
  Ni  Ni1       1.0  0.0024999923513600864  0.0033333385497560293  0.9993236531838543  1.0000
  Ni  Ni2       1.0  0.000833344524011757  0.009999987808809879  0.0  1.0000
  Ni  Ni3       1.0  0.004166658892414401  0.0016666718391307443  0.9996749115317556  1.0000
  Rh  Rh1       1.0  0.0008333386371911723  0.009999994646817159  0.9997529893879474  1.0000
  Rh  Rh2       1.0  0.004166658892414401  0.0016666718391307443  0.9994114678436183  1.0000
  Rh  Rh3       1.0  0.0024999923513600864  0.0033333385497560293  0.9990602097868719  1.0000
  Rh  Rh4       1.0  0.0024999923513600864  0.0033333385497560293  0.9995870968719915  1.0000
  Rh  Rh5       1.0  0.0008333255986080235  5.149999905699272e-09  0.9992358388152451  1.0000
  Rh  Rh6       1.0  0.0041666744490320125  0.001666659384188914  0.9999347422782169  1.0000
  Sn  Sn1       1.0  0.0008333255986080235  5.149999905699272e-09  0.9994992822122275  1.0000
  Sn  Sn2       1.0  0.004166658892414401  0.0016666718391307443  0.9991480241554811  1.0000
  Sn  Sn3       1.0  0.002500012465355871  0.0033333207220941938  0.999860594431433  1.0000
  Ni  Ni4       1.0  0.0024999924762366893  0.008333338803739156  0.9993236531838543  1.0000
  Ni  Ni5       1.0  0.0008333445904756983  0.004999988043255843  0.0  1.0000
  Ni  Ni6       1.0  0.004166658834130096  0.006666671726792053  0.9996749115317556  1.0000
  Rh  Rh7       1.0  0.000833338915151118  0.004999994881263122  0.9997529893879474  1.0000
  Rh  Rh8       1.0  0.004166658834130096  0.006666671726792053  0.9994114678436183  1.0000
  Rh  Rh9       1.0  0.0024999924762366893  0.008333338803739156  0.9990602097868719  1.0000
  Rh  Rh10      1.0  0.0024999924762366893  0.008333338803739156  0.9995870968719915  1.0000
  Rh  Rh11      1.0  0.0008333255377561299  0.005000005138274041  0.9992358388152451  1.0000
  Rh  Rh12      1.0  0.004166674512854979  0.006666659516064768  0.9999347422782169  1.0000
  Sn  Sn4       1.0  0.0008333255377561299  0.005000005138274041  0.9994992822122275  1.0000
  Sn  Sn5       1.0  0.004166658834130096  0.006666671726792053  0.9991480241554811  1.0000
  Sn  Sn6       1.0  0.0025000126594657453  0.008333321220291866  0.999860594431433  1.0000
  Ni  Ni7       1.0  0.0074999926199600135  0.0033333385497560293  0.9993236531838543  1.0000
  Ni  Ni8       1.0  0.005833344528241677  0.009999987808809879  0.0  1.0000
  Ni  Ni9       1.0  0.00916665921388833  0.0016666718391307443  0.9996749115317556  1.0000
  Rh  Rh13      1.0  0.005833338800043096  0.009999994646817159  0.9997529893879474  1.0000
  Rh  Rh14      1.0  0.00916665921388833  0.0016666718391307443  0.9994114678436183  1.0000
  Rh  Rh15      1.0  0.0074999926199600135  0.0033333385497560293  0.9990602097868719  1.0000
  Rh  Rh16      1.0  0.0074999926199600135  0.0033333385497560293  0.9995870968719915  1.0000
  Rh  Rh17      1.0  0.005833325497089941  5.149999905699272e-09  0.9992358388152451  1.0000
  Rh  Rh18      1.0  0.009166674982001945  0.001666659384188914  0.9999347422782169  1.0000
  Sn  Sn7       1.0  0.005833325497089941  5.149999905699272e-09  0.9994992822122275  1.0000
  Sn  Sn8       1.0  0.00916665921388833  0.0016666718391307443  0.9991480241554811  1.0000
  Sn  Sn9       1.0  0.00750001246958579  0.0033333207220941938  0.999860594431433  1.0000
  Ni  Ni10      1.0  0.007499992586214612  0.008333338803739156  0.9993236531838543  1.0000
  Ni  Ni11      1.0  0.00583334470045362  0.004999988043255843  0.0  1.0000
  Ni  Ni12      1.0  0.009166658785486014  0.006666671726792053  0.9996749115317556  1.0000
  Rh  Rh19      1.0  0.00583333902512904  0.004999994881263122  0.9997529893879474  1.0000
  Rh  Rh20      1.0  0.009166658785486014  0.006666671726792053  0.9994114678436183  1.0000
  Rh  Rh21      1.0  0.007499992586214612  0.008333338803739156  0.9990602097868719  1.0000
  Rh  Rh22      1.0  0.007499992586214612  0.008333338803739156  0.9995870968719915  1.0000
  Rh  Rh23      1.0  0.005833325753482054  0.005000005138274041  0.9992358388152451  1.0000
  Rh  Rh24      1.0  0.009166674675706903  0.006666659516064768  0.9999347422782169  1.0000
  Sn  Sn10      1.0  0.005833325753482054  0.005000005138274041  0.9994992822122275  1.0000
  Sn  Sn11      1.0  0.009166658785486014  0.006666671726792053  0.9991480241554811  1.0000
  Sn  Sn12      1.0  0.007500012769443668  0.008333321220291866  0.999860594431433  1.0000
  H   H1        1.0  0.0008333434856058001  0.0024999901141951903  4.421129564154188e-05  1.0000
