data_image0
_chemical_formula_structural       HGa4Cu2Ga4Cu2Ga4Cu2Ga4Cu2
_chemical_formula_sum              "H1 Ga16 Cu8"
_cell_length_a       8.131948471069336
_cell_length_b       6.626953996191242
_cell_length_c       102.52779388427734
_cell_angle_alpha    107.8650141021741
_cell_angle_beta     90.0
_cell_angle_gamma    72.1349858978259

_space_group_name_H-M_alt    "P 1"
_space_group_IT_number       1

loop_
  _space_group_symop_operation_xyz
  'x, y, z'

loop_
  _atom_site_type_symbol
  _atom_site_label
  _atom_site_symmetry_multiplicity
  _atom_site_fract_x
  _atom_site_fract_y
  _atom_site_fract_z
  _atom_site_occupancy
  H   H1        1.0  0.00188318971410069  0.0040194487224711325  0.00018279643853730891  1.0000
  Ga  Ga1       1.0  0.004644471999810354  0.002985980673390794  0.9996452850991294  1.0000
  Ga  Ga2       1.0  0.0021444718807029253  0.002985980673390794  0.9994469984505521  1.0000
  Ga  Ga3       1.0  0.0035665831701600465  0.007297534159570038  0.9997307773579881  1.0000
  Ga  Ga4       1.0  0.0010665835091581142  0.007297534159570038  0.9995324907094107  1.0000
  Cu  Cu1       1.0  0.00035552787058222183  0.00014175715365488472  0.9997871743616037  1.0000
  Cu  Cu2       1.0  0.002855527760636903  0.00014175715365488472  0.9995888877130262  1.0000
  Ga  Ga5       1.0  0.004616939456860768  0.0030844493116495447  5.3105246408866585e-05  1.0000
  Ga  Ga6       1.0  0.0021444718807029253  0.002985980673390794  0.9998435714570313  1.0000
  Ga  Ga7       1.0  0.0035057221443739214  0.007544813521938041  0.0001496034208379567  1.0000
  Ga  Ga8       1.0  0.0010817225664619906  0.007227357714910961  0.9999135820057775  1.0000
  Cu  Cu3       1.0  0.0004255788431516285  0.009858243469483392  0.00014941166452036556  1.0000
  Cu  Cu4       1.0  0.0028150345495519024  0.00028786305598995786  0.9999899725040725  1.0000
  Ga  Ga9       1.0  0.009644471779919717  0.002985980673390794  0.9996452850991294  1.0000
  Ga  Ga10      1.0  0.007144471889865035  0.002985980673390794  0.9994469984505521  1.0000
  Ga  Ga11      1.0  0.008566583408374904  0.007297534159570038  0.9997307773579881  1.0000
  Ga  Ga12      1.0  0.006066583518320225  0.007297534159570038  0.9995324907094107  1.0000
  Cu  Cu5       1.0  0.005355527879744332  0.00014175715365488472  0.9997871743616037  1.0000
  Cu  Cu6       1.0  0.007855527769799012  0.00014175715365488472  0.9995888877130262  1.0000
  Ga  Ga13      1.0  0.009616939236970129  0.0030844493116495447  5.3105246408866585e-05  1.0000
  Ga  Ga14      1.0  0.007144471889865035  0.002985980673390794  0.9998435714570313  1.0000
  Ga  Ga15      1.0  0.008505721924483282  0.007544813521938041  0.0001496034208379567  1.0000
  Ga  Ga16      1.0  0.006081722575624101  0.007227357714910961  0.9999135820057775  1.0000
  Cu  Cu7       1.0  0.005425578852313739  0.009858243469483392  0.00014941166452036556  1.0000
  Cu  Cu8       1.0  0.007815034100608515  0.00028786305598995786  0.9999899725040725  1.0000
