data_image0
_chemical_formula_structural       Al4Fe6Si6Al4Fe6Si6H
_chemical_formula_sum              "Al8 Fe12 Si12 H1"
_cell_length_a       6.3611475551543
_cell_length_b       7.500620127176354
_cell_length_c       102.40021514892578
_cell_angle_alpha    106.7776764167294
_cell_angle_beta     100.60816573899936
_cell_angle_gamma    101.89992998090874

_space_group_name_H-M_alt    "P 1"
_space_group_IT_number       1

loop_
  _space_group_symop_operation_xyz
  'x, y, z'

loop_
  _atom_site_type_symbol
  _atom_site_label
  _atom_site_symmetry_multiplicity
  _atom_site_fract_x
  _atom_site_fract_y
  _atom_site_fract_z
  _atom_site_occupancy
  Al  Al1       1.0  0.006826010534635197  0.0003783613897399222  0.9995130373235158  1.0000
  Al  Al2       1.0  0.0036223961880089317  0.007142823345804231  0.9997541565743832  1.0000
  Al  Al3       1.0  0.0065278002370904985  0.0025950266479031017  0.9993499597804771  1.0000
  Al  Al4       1.0  0.0033241859227440915  0.009359488941244115  0.9995910793298827  1.0000
  Fe  Fe1       1.0  0.009793211795650231  0.0075421945782777585  0.9996131287372917  1.0000
  Fe  Fe2       1.0  0.00035698417712384133  0.002195655280518894  0.9994909879005811  1.0000
  Fe  Fe3       1.0  0.006895983126773089  0.009301728821881015  0.9997169870688168  1.0000
  Fe  Fe4       1.0  0.0032542128829865635  0.0004361208008219458  0.999387129564487  1.0000
  Fe  Fe5       1.0  0.0071510570551734385  0.005713293579595074  0.9997600831021533  1.0000
  Fe  Fe6       1.0  0.0029991394553313577  0.004024556683933622  0.9993440332593888  1.0000
  Si  Si1       1.0  0.004205474973496173  0.0033471126821842468  0.9995715231844924  1.0000
  Si  Si2       1.0  0.0005003911004767952  0.005197832245678385  0.9994507127065088  1.0000
  Si  Si3       1.0  0.005944721153695857  0.0063907373115230865  0.9995325934579988  1.0000
  Si  Si4       1.0  0.0003118273968778813  0.0010066562836240588  0.9996970721606695  1.0000
  Si  Si5       1.0  0.009838369048004463  0.008731193710083275  0.9994070444854548  1.0000
  Si  Si6       1.0  0.009649804866833018  0.004540017478207586  0.999653403928449  1.0000
  Al  Al5       1.0  0.006724680883523067  0.0003853825125886991  0.9999655425831095  1.0000
  Al  Al6       1.0  0.003498194209864395  0.007020011454585982  0.00018843384740787852  1.0000
  Al  Al7       1.0  0.0065278002370904985  0.0025950266479031017  0.9998019710036729  1.0000
  Al  Al8       1.0  0.0033772193655535543  0.009621638742472545  6.244801675362476e-05  1.0000
  Fe  Fe7       1.0  0.009889241585601486  0.00757177941135737  6.586774407283091e-05  1.0000
  Fe  Fe8       1.0  0.00034486459237670954  0.002203151997246216  0.9999463031037998  1.0000
  Fe  Fe9       1.0  0.0069148624309967625  0.009139016826906305  0.00016116323930352044  1.0000
  Fe  Fe10      1.0  0.0032542128829865635  0.0004361208008219458  0.9998391402056074  1.0000
  Fe  Fe11      1.0  0.0068319052304178  0.005901207429441843  0.00017813874851946778  1.0000
  Fe  Fe12      1.0  0.0029991394553313577  0.004024556683933622  0.9997960441915468  1.0000
  Si  Si7       1.0  0.004202940434321253  0.0033782414330983585  2.0645827609458934e-05  1.0000
  Si  Si8       1.0  0.0005003911004767952  0.005197832245678385  0.9999027233476291  1.0000
  Si  Si9       1.0  0.005957074566718622  0.006398885377018756  0.9999722449968305  1.0000
  Si  Si10      1.0  0.00011075870522871105  0.0009322346276898642  0.00013904975848385336  1.0000
  Si  Si11      1.0  0.009838369048004463  0.008731193710083275  0.9998590554176128  1.0000
  Si  Si12      1.0  0.009413482670040142  0.004523642829199848  0.00011048983144833033  1.0000
  H   H1        1.0  0.002273902534700322  0.0027906967826276277  0.00012995868594229293  1.0000
