data_image0
_chemical_formula_structural       COIr12V12Ir12V12
_chemical_formula_sum              "C1 O1 Ir24 V24"
_cell_length_a       8.9338151731179
_cell_length_b       9.369797077224105
_cell_length_c       99.62798309326172
_cell_angle_alpha    89.99739699093631
_cell_angle_beta     87.38686050411918
_cell_angle_gamma    81.71104216129378

_space_group_name_H-M_alt    "P 1"
_space_group_IT_number       1

loop_
  _space_group_symop_operation_xyz
  'x, y, z'

loop_
  _atom_site_type_symbol
  _atom_site_label
  _atom_site_symmetry_multiplicity
  _atom_site_fract_x
  _atom_site_fract_y
  _atom_site_fract_z
  _atom_site_occupancy
  C   C1        1.0  0.0021960509348916183  0.0004822238003282625  1.3268919800729386e-05  1.0000
  O   O1        1.0  0.0021960509348916183  0.0004822238003282625  0.0001337166528720406  1.0000
  Ir  Ir1       1.0  0.0010959591728512733  0.005199342458602295  0.999899551054992  1.0000
  Ir  Ir2       1.0  0.001065547249477567  0.0005863681997438412  0.9997714680330737  1.0000
  Ir  Ir3       1.0  0.0037876877681576205  0.003106530637114606  0.9998516599039897  1.0000
  Ir  Ir4       1.0  0.003949994432897013  0.007586576197244278  0.9999633769768308  1.0000
  Ir  Ir5       1.0  0.0010500053901275849  0.006065540936667264  0.9996358155582261  1.0000
  Ir  Ir6       1.0  0.0010500053651064276  0.0015200863309440854  0.999500640137947  1.0000
  Ir  Ir7       1.0  0.003885882960836409  0.004098156980690482  0.9995773084006455  1.0000
  Ir  Ir8       1.0  0.003933788159813206  0.008633894775993287  0.9997088003833701  1.0000
  Ir  Ir9       1.0  0.0010500054042633417  0.006974631797543266  0.9993654644677756  1.0000
  Ir  Ir10      1.0  0.0010500053640229753  0.00242917729226781  0.9992302890475583  1.0000
  Ir  Ir11      1.0  0.0038858831836830034  0.005007247841566485  0.9993069573093417  1.0000
  Ir  Ir12      1.0  0.0038858830456509497  0.009552702145946496  0.9994421327302887  1.0000
  V   V1        1.0  0.0034937803386690934  0.005913678043173195  0.9997878370613029  1.0000
  V   V2        1.0  0.0035072568185584756  0.0003534087120604613  0.9999069964858035  1.0000
  V   V3        1.0  0.0014027403070147853  0.007945641447004693  0.9998500924868834  1.0000
  V   V4        1.0  0.001408993800897087  0.002397992292390726  0.99994735830374  1.0000
  V   V5        1.0  0.0034891609023288313  0.006880742909682962  0.9995113654395732  1.0000
  V   V6        1.0  0.003489160863171917  0.0014261974430837812  0.9996465411097446  1.0000
  V   V7        1.0  0.0014467274725728672  0.008737500574721687  0.9995665828491889  1.0000
  V   V8        1.0  0.0013932572164719942  0.003299283789418065  0.9997056761695426  1.0000
  V   V9        1.0  0.0034891606468769134  0.007789834172349854  0.9992410143502231  1.0000
  V   V10       1.0  0.0034891606533776266  0.0023352884044075058  0.9993761900202092  1.0000
  V   V11       1.0  0.0014467275475854606  0.0096465910338068  0.9992962317584912  1.0000
  V   V12       1.0  0.0014467276714817574  0.004192045868550787  0.9994314074279947  1.0000
  Ir  Ir13      1.0  0.006095959156154406  0.005199342458602295  0.9998995512106109  1.0000
  Ir  Ir14      1.0  0.006065547232780701  0.0005863681997438412  0.9997714681886928  1.0000
  Ir  Ir15      1.0  0.00878768816888243  0.003106530637114606  0.9998516594596301  1.0000
  Ir  Ir16      1.0  0.008949994416200147  0.007586576197244278  0.9999633771324498  1.0000
  Ir  Ir17      1.0  0.006050005373430718  0.006065540936667264  0.999635815414709  1.0000
  Ir  Ir18      1.0  0.006050005557120399  0.0015200863309440854  0.9995006399935767  1.0000
  Ir  Ir19      1.0  0.008885883361561217  0.004098156980690482  0.9995773082554219  1.0000
  Ir  Ir20      1.0  0.008933788143116338  0.008633894775993287  0.9997087999407169  1.0000
  Ir  Ir21      1.0  0.006050005178855637  0.006974631797543266  0.9993654643251119  1.0000
  Ir  Ir22      1.0  0.006050005347326109  0.00242917729226781  0.9992302889040413  1.0000
  Ir  Ir23      1.0  0.00888588274956446  0.005007247841566485  0.9993069571675313  1.0000
  Ir  Ir24      1.0  0.008885883028954083  0.009552702145946496  0.9994421325867717  1.0000
  V   V13       1.0  0.008493780321972226  0.005913678043173195  0.999787837216922  1.0000
  V   V14       1.0  0.008507256384439933  0.0003534087120604613  0.999906996044857  1.0000
  V   V15       1.0  0.006402740499028757  0.007945641447004693  0.999850092641649  1.0000
  V   V16       1.0  0.006408993575489382  0.002397992292390726  0.9999473584602123  1.0000
  V   V17       1.0  0.008489160885631964  0.006880742909682962  0.9995113652960561  1.0000
  V   V18       1.0  0.008489160429053373  0.0014261974430837812  0.999646540967934  1.0000
  V   V19       1.0  0.006446727873297677  0.008737500574721687  0.9995665827039653  1.0000
  V   V20       1.0  0.00639325699106429  0.003299283789418065  0.999705676326015  1.0000
  V   V21       1.0  0.008489161047601723  0.007789834172349854  0.9992410145041355  1.0000
  V   V22       1.0  0.00848916063668076  0.0023352884044075058  0.9993761898766921  1.0000
  V   V23       1.0  0.006446727322177755  0.0096465910338068  0.9992962316158275  1.0000
  V   V24       1.0  0.0064467276547848906  0.004192045868550787  0.9994314072844777  1.0000
