data_image0
_chemical_formula_structural       COZn5Au5Zn5Au5
_chemical_formula_sum              "C1 O1 Zn10 Au10"
_cell_length_a       4.556581974029541
_cell_length_b       7.204588584541014
_cell_length_c       103.48390197753906
_cell_angle_alpha    75.03678286978828
_cell_angle_beta     90.0
_cell_angle_gamma    71.56505089327668

_space_group_name_H-M_alt    "P 1"
_space_group_IT_number       1

loop_
  _space_group_symop_operation_xyz
  'x, y, z'

loop_
  _atom_site_type_symbol
  _atom_site_label
  _atom_site_symmetry_multiplicity
  _atom_site_fract_x
  _atom_site_fract_y
  _atom_site_fract_z
  _atom_site_occupancy
  C   C1        1.0  0.009438878825976875  0.006249644738938946  0.9999530462502658  1.0000
  O   O1        1.0  0.009438878825976875  0.006249644738938946  6.900655026781854e-05  1.0000
  Zn  Zn1       1.0  0.008027496373807662  0.004070168541103777  0.9991537444851869  1.0000
  Zn  Zn2       1.0  0.006027496398730315  0.008070168491258474  0.9992616001548529  1.0000
  Zn  Zn3       1.0  2.7496195066332288e-05  7.016855112239973e-05  0.9990458891042269  1.0000
  Zn  Zn4       1.0  0.0040274961978338485  0.0020701685660264283  0.9988301782963205  1.0000
  Zn  Zn5       1.0  0.0020274963643624713  0.006070168232969183  0.9989380336830875  1.0000
  Au  Au1       1.0  0.008027496373807662  0.004070168541103777  0.9988841061311534  1.0000
  Au  Au2       1.0  0.006027496398730315  0.008070168491258474  0.9989919615128295  1.0000
  Au  Au3       1.0  2.7496195066332288e-05  7.016855112239973e-05  0.9993155274582602  1.0000
  Au  Au4       1.0  0.0040274961978338485  0.0020701685660264283  0.9990998169383439  1.0000
  Au  Au5       1.0  0.0020274963643624713  0.006070168232969183  0.999207672037121  1.0000
  Zn  Zn6       1.0  0.008044497983802443  0.00403556032490509  0.9997236357312178  1.0000
  Zn  Zn7       1.0  0.006124907730416673  0.007879633125346107  0.9998076817583549  1.0000
  Zn  Zn8       1.0  0.009972503272038628  0.00017257594077886926  0.9995685571108718  1.0000
  Zn  Zn9       1.0  0.0040274961978338485  0.0020701685660264283  0.9993694555803673  1.0000
  Zn  Zn10      1.0  0.0020274963643624713  0.006070168232969183  0.9994773106791444  1.0000
  Au  Au6       1.0  0.008027496373807662  0.004070168541103777  0.9994233831272104  1.0000
  Au  Au7       1.0  0.006027496398730315  0.008070168491258474  0.9995312387968763  1.0000
  Au  Au8       1.0  9.816900748139964e-05  0.009929831001225723  0.9998215023064552  1.0000
  Au  Au9       1.0  0.003962948265470378  0.002195941856977842  0.9996597878596274  1.0000
  Au  Au10      1.0  0.002036088406801752  0.006053181180639809  0.9997505308523186  1.0000
