data_image0
_chemical_formula_structural       HNa24Sn8Zn4
_chemical_formula_sum              "H1 Na24 Sn8 Zn4"
_cell_length_a       5.852917380848155
_cell_length_b       14.19549999527264
_cell_length_c       109.6353759765625
_cell_angle_alpha    91.61403781725994
_cell_angle_beta     92.73056639674834
_cell_angle_gamma    96.77148544636663

_space_group_name_H-M_alt    "P 1"
_space_group_IT_number       1

loop_
  _space_group_symop_operation_xyz
  'x, y, z'

loop_
  _atom_site_type_symbol
  _atom_site_label
  _atom_site_symmetry_multiplicity
  _atom_site_fract_x
  _atom_site_fract_y
  _atom_site_fract_z
  _atom_site_occupancy
  H   H1        1.0  0.008572086848079653  0.009216672586389538  3.813795085169172e-05  1.0000
  Na  Na1       1.0  0.007357263736405478  0.0002114405928859688  0.9992351285310158  1.0000
  Na  Na2       1.0  0.0023572637065106855  0.002711440489760436  0.9989338620504837  1.0000
  Na  Na3       1.0  0.002357263615164778  0.00771144015129715  0.9995363955338114  1.0000
  Na  Na4       1.0  0.007134316757333466  0.005122370004882671  0.999871163347593  1.0000
  Na  Na5       1.0  0.0029061145647295184  0.002530898355684433  0.9993358409003782  1.0000
  Na  Na6       1.0  0.007906114592136339  0.0050308981864527905  0.9990345745611029  1.0000
  Na  Na7       1.0  0.007906114606002537  3.089849806046893e-05  0.9996371079247449  1.0000
  Na  Na8       1.0  0.0029814753084206613  0.007746980911719907  0.9999391089030354  1.0000
  Na  Na9       1.0  0.004696848296333275  0.003927169675317585  0.9995760328709454  1.0000
  Na  Na10      1.0  0.009696847763185577  0.006427169770510384  0.9992747662593776  1.0000
  Na  Na11      1.0  0.0004393924430068433  0.001462947000423282  0.9999080982917198  1.0000
  Na  Na12      1.0  0.004696848038726704  0.008927169072429856  0.9989734995056212  1.0000
  Na  Na13      1.0  0.0077001882763773405  0.0024897004987459595  0.9991217603000231  1.0000
  Na  Na14      1.0  0.002842603984780395  0.0035442048134251597  0.00011005239180133637  1.0000
  Na  Na15      1.0  0.0027001881200216073  0.009989700519899914  0.9994230267607545  1.0000
  Na  Na16      1.0  0.007700187617518207  0.007489700160282674  0.999724293238245  1.0000
  Na  Na17      1.0  0.003249038926236095  0.004809158195438313  0.9992224726686905  1.0000
  Na  Na18      1.0  0.00824903847573704  0.00730915802620667  0.9989212060563686  1.0000
  Na  Na19      1.0  0.008249039134596172  0.0023091583646699565  0.9995237391499177  1.0000
  Na  Na20      1.0  0.003415374971734883  0.009749428606280619  0.9998052882965666  1.0000
  Na  Na21      1.0  0.006080698701380312  0.0008054915866996384  8.075494520384588e-05  1.0000
  Na  Na22      1.0  0.0009094547316707337  0.003593429274305607  0.9997853684256318  1.0000
  Na  Na23      1.0  0.0009094545507174752  0.00859342893584232  0.9991828353332982  1.0000
  Na  Na24      1.0  0.005909454599775595  0.0060934291050739635  0.9994841018141202  1.0000
  Sn  Sn1       1.0  0.0024873499958598983  0.00089942856809773  0.9991224168536299  1.0000
  Sn  Sn2       1.0  0.0076278262704080274  0.0031365834299984475  3.0838457766243414e-05  1.0000
  Sn  Sn3       1.0  0.0074873497021748295  0.008399428126508911  0.9994236831818454  1.0000
  Sn  Sn4       1.0  0.002487349834069968  0.005899428295740554  0.999724949793357  1.0000
  Sn  Sn5       1.0  0.008118952826083633  0.004121170220226552  0.9993351843464816  1.0000
  Sn  Sn6       1.0  0.0031189526973745326  0.006621170050994909  0.999033917865457  1.0000
  Sn  Sn7       1.0  0.003118952798676812  0.0016211703894581954  0.9996364509575881  1.0000
  Sn  Sn8       1.0  0.008418890606204817  0.009174798331728002  0.9999254896914369  1.0000
  Zn  Zn1       1.0  0.005686292446722668  0.002388062089363649  0.9998266504176401  1.0000
  Zn  Zn2       1.0  0.0003031515277996006  0.0050102995224079955  0.9995300674084573  1.0000
  Zn  Zn3       1.0  0.0003031515840406633  1.0299499353489642e-05  0.9989275339237218  1.0000
  Zn  Zn4       1.0  0.005303151156951525  0.0075102993531763525  0.9992288007963379  1.0000
