data_image0
_chemical_formula_structural       COGa3Pt9Ga3Pt9Ga3Pt9Ga3Pt9
_chemical_formula_sum              "C1 O1 Ga12 Pt36"
_cell_length_a       7.921095371246338
_cell_length_b       8.856053846838721
_cell_length_c       103.60636138916016
_cell_angle_alpha    71.5650506892997
_cell_angle_beta     90.0
_cell_angle_gamma    90.0

_space_group_name_H-M_alt    "P 1"
_space_group_IT_number       1

loop_
  _space_group_symop_operation_xyz
  'x, y, z'

loop_
  _atom_site_type_symbol
  _atom_site_label
  _atom_site_symmetry_multiplicity
  _atom_site_fract_x
  _atom_site_fract_y
  _atom_site_fract_z
  _atom_site_occupancy
  C   C1        1.0  0.0012499998542070334  0.0026202028531797767  0.999878941256042  1.0000
  O   O1        1.0  0.0012499998542070334  0.0026202028531797767  0.9999947644946714  1.0000
  Ga  Ga1       1.0  0.0  0.007461027750245014  0.999113186164885  1.0000
  Ga  Ga2       1.0  0.0  0.0041276943223190424  0.9989329829342499  1.0000
  Ga  Ga3       1.0  0.0  0.0007943607835423225  0.999293389406187  1.0000
  Pt  Pt1       1.0  0.002499999943564013  0.005794361036282028  0.9990230845495675  1.0000
  Pt  Pt2       1.0  0.002499999943564013  0.0024610276083560562  0.9988428813189325  1.0000
  Pt  Pt3       1.0  0.002499999943564013  0.009127694464207999  0.9992032874925529  1.0000
  Pt  Pt4       1.0  0.0  0.007461027750245014  0.9988428813150971  1.0000
  Pt  Pt5       1.0  0.0  0.0041276943223190424  0.9992032877840378  1.0000
  Pt  Pt6       1.0  0.0  0.0007943607835423225  0.9990230845563992  1.0000
  Pt  Pt7       1.0  0.002499999943564013  0.009127694464207999  0.9989329829304147  1.0000
  Pt  Pt8       1.0  0.002499999943564013  0.005794361036282028  0.9992933891117057  1.0000
  Pt  Pt9       1.0  0.002499999943564013  0.0024610276083560562  0.9991131861687204  1.0000
  Ga  Ga4       1.0  0.009999999774256052  0.007559273438012573  0.9996600073206507  1.0000
  Ga  Ga5       1.0  0.0  0.0041276943223190424  0.9994735926338256  1.0000
  Ga  Ga6       1.0  0.009999999774256052  0.0009134231887072906  0.9998149755994812  1.0000
  Pt  Pt10      1.0  0.002499999943564013  0.005748164652146167  0.9995574724135589  1.0000
  Pt  Pt11      1.0  0.002499999943564013  0.0024610276083560562  0.9993834907308586  1.0000
  Pt  Pt12      1.0  0.002499999943564013  0.009205639389384844  0.9997511671027651  1.0000
  Pt  Pt13      1.0  0.0  0.007461027750245014  0.9993834910146728  1.0000
  Pt  Pt14      1.0  0.009999999774256052  0.00406268656624296  0.9997469473718288  1.0000
  Pt  Pt15      1.0  0.009999999774256052  0.000813111575548747  0.9995595762606246  1.0000
  Pt  Pt16      1.0  0.002499999943564013  0.009127694464207999  0.9994735923423408  1.0000
  Pt  Pt17      1.0  0.0024999997084140667  0.005946685483176169  0.9998057159695959  1.0000
  Pt  Pt18      1.0  0.002499999943564013  0.002481573572801408  0.9996584972962902  1.0000
  Ga  Ga7       1.0  0.004999999887128026  0.007461027750245014  0.999113186164885  1.0000
  Ga  Ga8       1.0  0.004999999887128026  0.0041276943223190424  0.9989329829342499  1.0000
  Ga  Ga9       1.0  0.004999999887128026  0.0007943607835423225  0.999293389406187  1.0000
  Pt  Pt19      1.0  0.007499999830692039  0.005794361036282028  0.9990230845495675  1.0000
  Pt  Pt20      1.0  0.007499999830692039  0.0024610276083560562  0.9988428813189325  1.0000
  Pt  Pt21      1.0  0.007499999830692039  0.009127694464207999  0.9992032874925529  1.0000
  Pt  Pt22      1.0  0.004999999887128026  0.007461027750245014  0.9988428813150971  1.0000
  Pt  Pt23      1.0  0.004999999887128026  0.0041276943223190424  0.9992032877840378  1.0000
  Pt  Pt24      1.0  0.004999999887128026  0.0007943607835423225  0.9990230845563992  1.0000
  Pt  Pt25      1.0  0.007499999830692039  0.009127694464207999  0.9989329829304147  1.0000
  Pt  Pt26      1.0  0.007499999830692039  0.005794361036282028  0.9992933891117057  1.0000
  Pt  Pt27      1.0  0.007499999830692039  0.0024610276083560562  0.9991131861687204  1.0000
  Ga  Ga10      1.0  0.004999999887128026  0.007559273438012573  0.9996600073206507  1.0000
  Ga  Ga11      1.0  0.004999999887128026  0.0041276943223190424  0.9994735926338256  1.0000
  Ga  Ga12      1.0  0.004999999887128026  0.0009134231887072906  0.9998149755994812  1.0000
  Pt  Pt28      1.0  0.007499999830692039  0.005748164652146167  0.9995574724135589  1.0000
  Pt  Pt29      1.0  0.007499999830692039  0.0024610276083560562  0.9993834907308586  1.0000
  Pt  Pt30      1.0  0.007499999830692039  0.009205639389384844  0.9997511671027651  1.0000
  Pt  Pt31      1.0  0.004999999887128026  0.007461027750245014  0.9993834910146728  1.0000
  Pt  Pt32      1.0  0.004999999887128026  0.00406268656624296  0.9997469473718288  1.0000
  Pt  Pt33      1.0  0.004999999887128026  0.000813111575548747  0.9995595762606246  1.0000
  Pt  Pt34      1.0  0.007499999830692039  0.009127694464207999  0.9994735923423408  1.0000
  Pt  Pt35      1.0  0.007499999830692039  0.005946685483176169  0.9998057159695959  1.0000
  Pt  Pt36      1.0  0.007499999830692039  0.002481573572801408  0.9996584972962902  1.0000
