data_image0
_chemical_formula_structural       Sn8Rh8H
_chemical_formula_sum              "Sn8 Rh8 H1"
_cell_length_a       5.231786727905273
_cell_length_b       7.398863792419434
_cell_length_c       40.404544830322266
_cell_angle_alpha    90.0
_cell_angle_beta     90.0
_cell_angle_gamma    90.0

_space_group_name_H-M_alt    "P 1"
_space_group_IT_number       1

loop_
  _space_group_symop_operation_xyz
  'x, y, z'

loop_
  _atom_site_type_symbol
  _atom_site_label
  _atom_site_symmetry_multiplicity
  _atom_site_fract_x
  _atom_site_fract_y
  _atom_site_fract_z
  _atom_site_occupancy
  Sn  Sn1       1.0  0.00657909952212261  0.005212077657186762  0.0  1.0000
  Sn  Sn2       1.0  0.0066020930194829455  1.5124799428331975e-05  0.999077164250224  1.0000
  Sn  Sn3       1.0  0.0021020228840468317  0.0023962040499262015  0.00011896796264925095  1.0000
  Sn  Sn4       1.0  0.0016020930408444261  0.007515124322642249  0.999206114130268  1.0000
  Sn  Sn5       1.0  0.0033979069377940933  0.008413031476343119  0.9984549407323857  1.0000
  Sn  Sn6       1.0  0.0033979069377940933  0.003413031667671186  0.9993705387991324  1.0000
  Sn  Sn7       1.0  0.008397907094444948  0.004117217642226599  0.9989127395813595  1.0000
  Sn  Sn8       1.0  0.008493453435436423  0.00913457694858816  0.9998507241244153  1.0000
  Rh  Rh1       1.0  0.00356477320898058  0.005015124544180011  0.9987177587977417  1.0000
  Rh  Rh2       1.0  0.0037110630342990407  0.009984875133583244  0.9996257223535895  1.0000
  Rh  Rh3       1.0  0.008564773009606765  0.007515124322642249  0.9986499215160035  1.0000
  Rh  Rh4       1.0  0.008471560766359226  0.0025537753011431285  0.999576733658056  1.0000
  Rh  Rh5       1.0  0.006435226392271788  0.001450351592916128  0.9984549407323857  1.0000
  Rh  Rh6       1.0  0.006435226392271788  0.0064503514015880606  0.9993705387991324  1.0000
  Rh  Rh7       1.0  0.0014877035600963265  0.005946651060365125  0.9997994551438286  1.0000
  Rh  Rh8       1.0  0.0014352267696579391  0.0010798979083097252  0.9989127395813595  1.0000
  H   H1        1.0  0.0039259556095224395  0.007047867950378377  0.00017963800199286071  1.0000
