data_image0
_chemical_formula_structural       CONi12V6Ni12V6
_chemical_formula_sum              "C1 O1 Ni24 V12"
_cell_length_a       8.830715216476776
_cell_length_b       6.742222134291347
_cell_length_c       98.41706848144531
_cell_angle_alpha    89.95528671228608
_cell_angle_beta     88.61580878547355
_cell_angle_gamma    83.66198858120266

_space_group_name_H-M_alt    "P 1"
_space_group_IT_number       1

loop_
  _space_group_symop_operation_xyz
  'x, y, z'

loop_
  _atom_site_type_symbol
  _atom_site_label
  _atom_site_symmetry_multiplicity
  _atom_site_fract_x
  _atom_site_fract_y
  _atom_site_fract_z
  _atom_site_occupancy
  C   C1        1.0  0.0009255677751593699  0.004183683455486216  0.00011223424476938032  1.0000
  O   O1        1.0  0.0009255677751593699  0.004183683455486216  0.00023416395573524457  1.0000
  Ni  Ni1       1.0  0.0016370950969897685  0.007691029206324221  0.9994304510925606  1.0000
  Ni  Ni2       1.0  0.003720428504093688  0.00310769599900178  0.9993101421137673  1.0000
  Ni  Ni3       1.0  0.001932197921024398  0.00409316658884234  0.9995103628579787  1.0000
  Ni  Ni4       1.0  0.004015531330003361  0.009509833359282682  0.9993900540316318  1.0000
  Ni  Ni5       1.0  0.002470428563174547  0.006857696199136726  0.9996710689614078  1.0000
  Ni  Ni6       1.0  0.00455376178272693  0.002274362713849082  0.9995507599830359  1.0000
  Ni  Ni7       1.0  0.002803574230020964  0.0031837033600184673  0.9997522747043607  1.0000
  Ni  Ni8       1.0  0.004848864210095493  0.00867649979616478  0.9996306715989625  1.0000
  Ni  Ni9       1.0  0.0033274072979907  0.005988107078671642  0.9999062152836544  1.0000
  Ni  Ni10      1.0  0.0004703540353135278  0.001357434729500809  0.9997953888394725  1.0000
  Ni  Ni11      1.0  0.0036536569783417795  0.00244679342410648  0.9999811127315449  1.0000
  Ni  Ni12      1.0  0.0007014128568613052  0.007789032509778326  0.9998702225865589  1.0000
  V   V1        1.0  0.004284646568084164  0.00589209789758328  0.9994704068559076  1.0000
  V   V2        1.0  0.0013679798570339218  0.0013087646902608392  0.9993500981158385  1.0000
  V   V3        1.0  0.00015113530838775793  0.005038189350145285  0.9997146703649393  1.0000
  V   V4        1.0  0.002201313147386183  0.0004754312661255397  0.9995907156822724  1.0000
  V   V5        1.0  0.0009733753763623607  0.00417877653575908  0.9999361914100076  1.0000
  V   V6        1.0  0.0031122598766656915  0.009524568850619844  0.999832280069912  1.0000
  Ni  Ni13      1.0  0.006637094582175208  0.007691029206324221  0.999430451158025  1.0000
  Ni  Ni14      1.0  0.008720428200268701  0.00310769599900178  0.9993101421787743  1.0000
  Ni  Ni15      1.0  0.006932197406209838  0.00409316658884234  0.9995103626206265  1.0000
  Ni  Ni16      1.0  0.009015531026178376  0.009509833359282682  0.9993900537938223  1.0000
  Ni  Ni17      1.0  0.0074704278373704126  0.006857696199136726  0.9996710687245128  1.0000
  Ni  Ni18      1.0  0.009553761478901943  0.002274362713849082  0.9995507600480429  1.0000
  Ni  Ni19      1.0  0.007803573926195979  0.0031837033600184673  0.9997522744665511  1.0000
  Ni  Ni20      1.0  0.009848864328249654  0.00867649979616478  0.9996306716630549  1.0000
  Ni  Ni21      1.0  0.008327406572186566  0.005988107078671642  0.9999062150467595  1.0000
  Ni  Ni22      1.0  0.005470353625993754  0.001357434729500809  0.9997953889047083  1.0000
  Ni  Ni23      1.0  0.008653656674516794  0.00244679342410648  0.9999811124937353  1.0000
  Ni  Ni24      1.0  0.005701412764025892  0.007789032509778326  0.9998702229539252  1.0000
  V   V7        1.0  0.009284646264259178  0.00589209789758328  0.9994704069209146  1.0000
  V   V8        1.0  0.00636797976419851  0.0013087646902608392  0.9993500981803882  1.0000
  V   V9        1.0  0.005151134899067985  0.005038189350145285  0.9997146701273584  1.0000
  V   V10       1.0  0.007201312632571623  0.0004754312661255397  0.9995907157477368  1.0000
  V   V11       1.0  0.005973375283526949  0.00417877653575908  0.9999361911717407  1.0000
  V   V12       1.0  0.008112259994819853  0.009524568850619844  0.9998322801340044  1.0000
