data_image0
_chemical_formula_structural       CONb8Ru4W4
_chemical_formula_sum              "C1 O1 Nb8 Ru4 W4"
_cell_length_a       4.559340953826904
_cell_length_b       6.447881698608398
_cell_length_c       106.47472381591797
_cell_angle_alpha    90.0
_cell_angle_beta     90.0
_cell_angle_gamma    90.0

_space_group_name_H-M_alt    "P 1"
_space_group_IT_number       1

loop_
  _space_group_symop_operation_xyz
  'x, y, z'

loop_
  _atom_site_type_symbol
  _atom_site_label
  _atom_site_symmetry_multiplicity
  _atom_site_fract_x
  _atom_site_fract_y
  _atom_site_fract_z
  _atom_site_occupancy
  C   C1        1.0  0.0024999998610984882  0.003756255205333634  0.00015951134398429906  1.0000
  O   O1        1.0  0.0024999998610984882  0.003756255205333634  0.00027221437704819947  1.0000
  Nb  Nb1       1.0  1.9999998811003397e-10  0.0075000003004321485  0.9995749286321046  1.0000
  Nb  Nb2       1.0  0.009999998627326237  0.007487489034688764  0.0  1.0000
  Nb  Nb3       1.0  0.005000000130730834  0.0075000003004321485  0.9993608243860731  1.0000
  Nb  Nb4       1.0  0.004999999313663119  0.007496135125284458  0.9997919057762853  1.0000
  Nb  Nb5       1.0  0.005000000130730834  0.0025000004853134713  0.9993608243860731  1.0000
  Nb  Nb6       1.0  0.004999999313663119  0.002503863349444631  0.9997919057762853  1.0000
  Nb  Nb7       1.0  4.999999946256004e-10  0.0025125100177944572  0.0  1.0000
  Nb  Nb8       1.0  1.9999998811003397e-10  0.0025000004853134713  0.9995749286321046  1.0000
  Ru  Ru1       1.0  0.009999998627326237  0.004999996348593881  0.999788244118687  1.0000
  Ru  Ru2       1.0  1.9999998811003397e-10  0.00500000039287281  0.9993608243860731  1.0000
  Ru  Ru3       1.0  0.0049999960453922555  0.009999999630237354  0.9999899482152831  1.0000
  Ru  Ru4       1.0  0.005000000130730834  5.00000006625959e-10  0.9995749286321046  1.0000
  W   W1        1.0  0.009999999444393953  1.5999999936536049e-09  0.999790245966657  1.0000
  W   W2        1.0  1.9999998811003397e-10  5.00000006625959e-10  0.9993608243860731  1.0000
  W   W3        1.0  0.004999999313663119  0.00500000039287281  0.9999936776087885  1.0000
  W   W4        1.0  0.005000000130730834  0.00500000039287281  0.9995749286321046  1.0000
