data_image0
_chemical_formula_structural       HVPd3VPd3VPd3VPd3VPd3VPd3VPd3VPd3
_chemical_formula_sum              "H1 V8 Pd24"
_cell_length_a       7.829465389251709
_cell_length_b       7.829465389251709
_cell_length_c       101.31786346435547
_cell_angle_alpha    90.0
_cell_angle_beta     90.0
_cell_angle_gamma    90.0

_space_group_name_H-M_alt    "P 1"
_space_group_IT_number       1

loop_
  _space_group_symop_operation_xyz
  'x, y, z'

loop_
  _atom_site_type_symbol
  _atom_site_label
  _atom_site_symmetry_multiplicity
  _atom_site_fract_x
  _atom_site_fract_y
  _atom_site_fract_z
  _atom_site_occupancy
  H   H1        1.0  2.9999999367957053e-10  0.002500000104676862  0.00010399970895941886  1.0000
  V   V1        1.0  2.9999999367957053e-10  5.00000001282669e-11  0.9996083659295019  1.0000
  Pd  Pd1       1.0  0.0025000003425788204  0.002500000104676862  0.9996083659295019  1.0000
  Pd  Pd2       1.0  2.9999999367957053e-10  0.002500000104676862  0.9994151750366248  1.0000
  Pd  Pd3       1.0  0.0025000003425788204  5.00000001282669e-11  0.9994151750366248  1.0000
  V   V2        1.0  2.9999999367957053e-10  5.00000001282669e-11  0.9999823970806333  1.0000
  Pd  Pd4       1.0  0.002500002721598404  0.0024999927297161516  0.0  1.0000
  Pd  Pd5       1.0  0.009999999467099613  0.0024999986772651114  0.9998070403064849  1.0000
  Pd  Pd6       1.0  0.0025000022457944875  0.010000000418707447  0.999807041483072  1.0000
  V   V3        1.0  2.9999999367957053e-10  0.005000000209353724  0.9996083659295019  1.0000
  Pd  Pd7       1.0  0.0025000003425788204  0.007500000076128627  0.9996083659295019  1.0000
  Pd  Pd8       1.0  2.9999999367957053e-10  0.007500000076128627  0.9994151750366248  1.0000
  Pd  Pd9       1.0  0.0025000003425788204  0.005000000209353724  0.9994151750366248  1.0000
  V   V4        1.0  2.9999999367957053e-10  0.005000000209353724  0.9999823970806333  1.0000
  Pd  Pd10      1.0  0.002500002721598404  0.007499992463265959  0.0  1.0000
  Pd  Pd11      1.0  0.009999999467099613  0.007499998648716877  0.9998070403064849  1.0000
  Pd  Pd12      1.0  0.0025000022457944875  0.005000000209353724  0.999807041483072  1.0000
  V   V5        1.0  0.005000000209353724  5.00000001282669e-11  0.9996083659295019  1.0000
  Pd  Pd13      1.0  0.007500000551932544  0.002500000104676862  0.9996083659295019  1.0000
  Pd  Pd14      1.0  0.005000000209353724  0.002500000104676862  0.9994151750366248  1.0000
  Pd  Pd15      1.0  0.007500000551932544  5.00000001282669e-11  0.9994151750366248  1.0000
  V   V6        1.0  0.005000000209353724  5.00000001282669e-11  0.9999823970806333  1.0000
  Pd  Pd16      1.0  0.007500002455148211  0.0024999927297161516  0.0  1.0000
  Pd  Pd17      1.0  0.004999999733549807  0.0024999986772651114  0.9998070403064849  1.0000
  Pd  Pd18      1.0  0.007500002455148211  0.010000000418707447  0.999807041483072  1.0000
  V   V7        1.0  0.005000000209353724  0.005000000209353724  0.9996083659295019  1.0000
  Pd  Pd19      1.0  0.007500000551932544  0.007500000076128627  0.9996083659295019  1.0000
  Pd  Pd20      1.0  0.005000000209353724  0.007500000076128627  0.9994151750366248  1.0000
  Pd  Pd21      1.0  0.007500000551932544  0.005000000209353724  0.9994151750366248  1.0000
  V   V8        1.0  0.005000000209353724  0.005000000209353724  0.9999823970806333  1.0000
  Pd  Pd22      1.0  0.007500002455148211  0.007499992463265959  0.0  1.0000
  Pd  Pd23      1.0  0.004999999733549807  0.007499998648716877  0.9998070403064849  1.0000
  Pd  Pd24      1.0  0.007500002455148211  0.005000000209353724  0.999807041483072  1.0000
