data_image0
_chemical_formula_structural       HSb32Rh16
_chemical_formula_sum              "H1 Sb32 Rh16"
_cell_length_a       9.494629174522611
_cell_length_b       12.24187811068372
_cell_length_c       107.978515625
_cell_angle_alpha    87.73016510015088
_cell_angle_beta     89.52212484602866
_cell_angle_gamma    87.73016506474296

_space_group_name_H-M_alt    "P 1"
_space_group_IT_number       1

loop_
  _space_group_symop_operation_xyz
  'x, y, z'

loop_
  _atom_site_type_symbol
  _atom_site_label
  _atom_site_symmetry_multiplicity
  _atom_site_fract_x
  _atom_site_fract_y
  _atom_site_fract_z
  _atom_site_occupancy
  H   H1        1.0  0.0007207078334650421  0.009431069449824856  6.984609780926813e-07  1.0000
  Sb  Sb1       1.0  0.009357950120072617  0.004057749917977179  0.9994178745922269  1.0000
  Sb  Sb2       1.0  0.004351614213807537  0.004277670559678479  0.9998474928416473  1.0000
  Sb  Sb3       1.0  0.006857950315104366  0.009057750405627722  0.9991980477747212  1.0000
  Sb  Sb4       1.0  0.0018579500482918908  0.009057750405627722  0.9996377011968811  1.0000
  Sb  Sb5       1.0  0.005678205529680351  0.0033112828120544094  0.9995339655180615  1.0000
  Sb  Sb6       1.0  0.0006964026331984455  0.0029931136916277424  0.9999740919757116  1.0000
  Sb  Sb7       1.0  0.003178205740147208  0.008311282994923364  0.9993141387019131  1.0000
  Sb  Sb8       1.0  0.00828699061706481  0.008280251962208255  0.9997569756359255  1.0000
  Sb  Sb9       1.0  0.008042763921527427  0.00081128279681533  0.9995458747639111  1.0000
  Sb  Sb10      1.0  0.003906936021236271  0.000723041364396478  0.9999938881188876  1.0000
  Sb  Sb11      1.0  0.005542763751199327  0.005811282751098092  0.9993260479490683  1.0000
  Sb  Sb12      1.0  0.0006814363208669191  0.005787962083024651  0.9997757508718971  1.0000
  Sb  Sb13      1.0  0.0017225083668072512  0.0015577499789334967  0.9994297842283841  1.0000
  Sb  Sb14      1.0  0.0066098495763312086  0.0015923716435500804  0.999872955764288  1.0000
  Sb  Sb15      1.0  0.009222508326156485  0.006557750161802451  0.9992099570218765  1.0000
  Sb  Sb16      1.0  0.004222508451715296  0.006557750161802451  0.9996496109957532  1.0000
  Sb  Sb17      1.0  0.009445713517698875  0.0030689311597383233  0.999667678153543  1.0000
  Sb  Sb18      1.0  0.004445713250886399  0.0030689311597383233  0.9992280245703131  1.0000
  Sb  Sb19      1.0  0.006945712958858263  0.008068931037825688  0.9994478513393272  1.0000
  Sb  Sb20      1.0  0.0018034714908279135  0.00816788813374577  0.9998914118616058  1.0000
  Sb  Sb21      1.0  0.007992570260527056  0.0042882763494168285  0.9999582130883241  1.0000
  Sb  Sb22      1.0  0.002837290306359746  0.004300101875074854  0.9995262484368587  1.0000
  Sb  Sb23      1.0  0.0054164926180404515  0.009278061167763101  0.9997431821829992  1.0000
  Sb  Sb24      1.0  0.0003372902870296549  0.00930010175316222  0.9993064216222474  1.0000
  Sb  Sb25      1.0  0.007955001297067414  0.0018001017836403778  0.9992960712010016  1.0000
  Sb  Sb26      1.0  0.002967401184429234  0.0017145462389756842  0.9997505086712443  1.0000
  Sb  Sb27      1.0  0.005735652106898701  0.006839306174709195  0.9999527550630845  1.0000
  Sb  Sb28      1.0  0.0004550007915865419  0.006800102118900126  0.9995158978066582  1.0000
  Sb  Sb29      1.0  0.009662709856533608  0.0008056526427148325  0.9998815226299248  1.0000
  Sb  Sb30      1.0  0.004563423784384113  0.0005689309540107502  0.9994375007572687  1.0000
  Sb  Sb31      1.0  0.0070634234942853645  0.005568930794000416  0.9996573280784572  1.0000
  Sb  Sb32      1.0  0.002063423619844177  0.005568930794000416  0.9992176739429349  1.0000
  Rh  Rh1       1.0  0.006758797849828846  0.0035168497648158967  0.9997538301872074  1.0000
  Rh  Rh2       1.0  0.0018137106141714928  0.003498040473824675  0.9993155180010519  1.0000
  Rh  Rh3       1.0  0.004313710714514645  0.00849804035191204  0.9995353447697782  1.0000
  Rh  Rh4       1.0  0.009354390432168706  0.00880554973625908  0.9999580504558907  1.0000
  Rh  Rh5       1.0  0.006842265016020003  0.0038709925609885032  0.9993180287750122  1.0000
  Rh  Rh6       1.0  0.0018790434474380427  0.0037852873685635495  0.999763949270645  1.0000
  Rh  Rh7       1.0  0.004264805839418907  0.008678960531905805  0.9999505650526161  1.0000
  Rh  Rh8       1.0  0.009342265116363154  0.008870992439075867  0.9995378555437386  1.0000
  Rh  Rh9       1.0  0.0005870032039717244  0.0013709924695540262  0.999208577885339  1.0000
  Rh  Rh10      1.0  0.005587003274598556  0.0013709924695540262  0.9996482317447151  1.0000
  Rh  Rh11      1.0  0.008148736938396219  0.006302621760488681  0.9998584846200201  1.0000
  Rh  Rh12      1.0  0.0030870034773478596  0.0063709928048137745  0.9994284049278881  1.0000
  Rh  Rh13      1.0  0.0005584491218408775  0.0009980403061948006  0.9996457209709142  1.0000
  Rh  Rh14      1.0  0.005558449143421298  0.0009980403061948006  0.9992060669969296  1.0000
  Rh  Rh15      1.0  0.008058449247623226  0.005998040108086768  0.9994258937659952  1.0000
  Rh  Rh16      1.0  0.0032628189629171096  0.006246629725187463  0.9998710839884766  1.0000
