data_image0
_chemical_formula_structural       HPt20Ti12
_chemical_formula_sum              "H1 Pt20 Ti12"
_cell_length_a       7.456242854191951
_cell_length_b       7.456243143707776
_cell_length_c       106.99152374267578
_cell_angle_alpha    94.68467469988622
_cell_angle_beta     94.68467488219223
_cell_angle_gamma    96.2877116239259

_space_group_name_H-M_alt    "P 1"
_space_group_IT_number       1

loop_
  _space_group_symop_operation_xyz
  'x, y, z'

loop_
  _atom_site_type_symbol
  _atom_site_label
  _atom_site_symmetry_multiplicity
  _atom_site_fract_x
  _atom_site_fract_y
  _atom_site_fract_z
  _atom_site_occupancy
  H   H1        1.0  0.002999469998328935  0.0005254649019518593  0.0001349758730265555  1.0000
  Pt  Pt1       1.0  0.008030322752917719  0.006028418122626093  0.9993578356114096  1.0000
  Pt  Pt2       1.0  0.005476801364501976  0.0035004105738228254  0.9997881042605258  1.0000
  Pt  Pt3       1.0  0.009701851171265586  0.001856889851372482  0.9995739249292152  1.0000
  Pt  Pt4       1.0  0.007319306157077594  0.00932860932330046  1.1218588963430492e-05  1.0000
  Pt  Pt5       1.0  0.004515613274409764  0.006670651558614963  0.9996061198390104  1.0000
  Pt  Pt6       1.0  0.002102931971682437  0.004281216031669403  3.633678042672273e-05  1.0000
  Pt  Pt7       1.0  0.0028440848711631522  0.0008421803018191971  0.9993900308025253  1.0000
  Pt  Pt8       1.0  0.00029814876995761674  0.008389669364093468  0.9998311117701796  1.0000
  Pt  Pt9       1.0  0.0018289763903341495  0.007043526369503591  0.9993739332054624  1.0000
  Pt  Pt10      1.0  0.009316221978424164  0.004576100875959738  0.9997999606524266  1.0000
  Pt  Pt11      1.0  0.006966959524068537  0.0019055434177370702  0.9993739332064981  1.0000
  Pt  Pt12      1.0  0.004466771780541128  0.009405697283735285  0.9998103650823431  1.0000
  Pt  Pt13      1.0  0.008186151498860005  0.0030358382807353468  6.367764532978013e-06  1.0000
  Pt  Pt14      1.0  0.0007169596026859576  0.005655543311737465  0.9995900225233106  1.0000
  Pt  Pt15      1.0  0.0029960615674950617  0.008170092191632167  2.7905429520275176e-05  1.0000
  Pt  Pt16      1.0  0.005578976510979873  0.0007935266723596059  0.9995900225248413  1.0000
  Pt  Pt17      1.0  0.004397968042004202  0.00447453508290534  0.9993739332075403  1.0000
  Pt  Pt18      1.0  0.001871920409443646  0.001911710449524256  0.9998055812146461  1.0000
  Pt  Pt19      1.0  0.008147968044365907  0.00822453510309574  0.9995900222460886  1.0000
  Pt  Pt20      1.0  0.005658889876681535  0.005788477416503485  1.5254922651068303e-05  1.0000
  Ti  Ti1       1.0  0.001995020672296938  0.009174987628937516  0.9996075253449176  1.0000
  Ti  Ti2       1.0  0.009540420525446385  0.0065610101099314025  2.583497338422606e-05  1.0000
  Ti  Ti3       1.0  0.005348420519853854  0.008321587332012633  0.9993914360253916  1.0000
  Ti  Ti4       1.0  0.002823434637721715  0.005801469939529587  0.9998272038624925  1.0000
  Ti  Ti5       1.0  0.0005509154071803652  0.003524082557063565  0.9993564303872204  1.0000
  Ti  Ti6       1.0  0.0080367609262119  0.0009616359889406998  0.9997900214769334  1.0000
  Ti  Ti7       1.0  0.007197515507473629  0.004377482349228423  0.9995725194250283  1.0000
  Ti  Ti8       1.0  0.004680399063112266  0.0019424845324972418  0.99999931162099  1.0000
  Ti  Ti9       1.0  0.00939796796642964  0.009474534436812508  0.9993739332034328  1.0000
  Ti  Ti10      1.0  0.0068373749460731706  0.006962277672188262  0.9998095138675898  1.0000
  Ti  Ti11      1.0  0.0006779452332543306  0.0008198133125263444  2.85697247748205e-05  1.0000
  Ti  Ti12      1.0  0.003147968031376529  0.0032245349920485356  0.999590022523931  1.0000
