data_image0
_chemical_formula_structural       COMn4Fe4As4Mn4Fe4As4Mn4Fe4As4Mn4Fe4As4
_chemical_formula_sum              "C1 O1 Mn16 Fe16 As16"
_cell_length_a       6.840179538010325
_cell_length_b       7.271997928619385
_cell_length_c       111.04107666015625
_cell_angle_alpha    90.0
_cell_angle_beta     115.7775099308929
_cell_angle_gamma    90.0

_space_group_name_H-M_alt    "P 1"
_space_group_IT_number       1

loop_
  _space_group_symop_operation_xyz
  'x, y, z'

loop_
  _atom_site_type_symbol
  _atom_site_label
  _atom_site_symmetry_multiplicity
  _atom_site_fract_x
  _atom_site_fract_y
  _atom_site_fract_z
  _atom_site_occupancy
  C   C1        1.0  0.006997497092881254  0.0037499990778981787  0.0002800304105149106  1.0000
  O   O1        1.0  0.006997497092881254  0.0037499990778981787  0.0003880987459420014  1.0000
  Mn  Mn1       1.0  0.009433148906798713  0.009999989344601173  4.8742114556129673e-05  1.0000
  Mn  Mn2       1.0  0.005360344321420307  4.0000000413348394e-10  0.9998046975999336  1.0000
  Mn  Mn3       1.0  0.005410652440977225  0.002500000409823032  0.00014494411275446127  1.0000
  Mn  Mn4       1.0  0.009639655872116657  0.002500000409823032  0.9998490920970935  1.0000
  Fe  Fe1       1.0  0.008750000314497568  0.002500000409823032  0.9995958932652451  1.0000
  Fe  Fe2       1.0  0.0036118654590631  0.0025000014343806117  0.9999104975369463  1.0000
  Fe  Fe3       1.0  0.0012499999909279548  4.0000000413348394e-10  0.9997498941370512  1.0000
  Fe  Fe4       1.0  0.006138595163751239  0.00999999754106181  6.867670222150995e-05  1.0000
  As  As1       1.0  0.002275141629866903  0.009999999590176969  0.9999953255431179  1.0000
  As  As2       1.0  0.007493382342182798  4.0000000413348394e-10  0.9996733012408549  1.0000
  As  As3       1.0  0.002506617736441594  0.002500000409823032  0.9996724861553657  1.0000
  As  As4       1.0  0.007330794357375605  0.0025000142413503573  0.9999608059724175  1.0000
  Mn  Mn5       1.0  0.00036034428210811147  4.0000000413348394e-10  0.9994966953011524  1.0000
  Mn  Mn6       1.0  0.005360344321420307  4.0000000413348394e-10  0.9991886930044772  1.0000
  Mn  Mn7       1.0  0.004639655606003331  0.002500000409823032  0.9995410897922364  1.0000
  Mn  Mn8       1.0  0.009639655872116657  0.002500000409823032  0.9992330877700272  1.0000
  Fe  Fe5       1.0  0.008750000314497568  0.002500000409823032  0.9989798886697887  1.0000
  Fe  Fe6       1.0  0.0037500000483842414  0.002500000409823032  0.9992878909603881  1.0000
  Fe  Fe7       1.0  0.0012499999909279548  4.0000000413348394e-10  0.9991338898099849  1.0000
  Fe  Fe8       1.0  0.006249999879039397  4.0000000413348394e-10  0.9994418918363256  1.0000
  As  As5       1.0  0.002493382378470979  4.0000000413348394e-10  0.9993652989440988  1.0000
  As  As6       1.0  0.007493382342182798  4.0000000413348394e-10  0.9990572969137885  1.0000
  As  As7       1.0  0.002506617736441594  0.002500000409823032  0.9990564815599093  1.0000
  As  As8       1.0  0.007506617851354167  0.002500000409823032  0.9993644838607159  1.0000
  Mn  Mn9       1.0  0.009433148906798713  0.004999990061791478  4.8742114556129673e-05  1.0000
  Mn  Mn10      1.0  0.005360344321420307  0.005000000307367274  0.9998046975999336  1.0000
  Mn  Mn11      1.0  0.005410652440977225  0.007500000204911516  0.00014494411275446127  1.0000
  Mn  Mn12      1.0  0.009639655872116657  0.007500000204911516  0.9998490920970935  1.0000
  Fe  Fe9       1.0  0.008750000314497568  0.007500000204911516  0.9995958932652451  1.0000
  Fe  Fe10      1.0  0.0036118654590631  0.0075000012294690966  0.9999104975369463  1.0000
  Fe  Fe11      1.0  0.0012499999909279548  0.005000000307367274  0.9997498941370512  1.0000
  Fe  Fe12      1.0  0.006138595163751239  0.004999997745973326  6.867670222150995e-05  1.0000
  As  As9       1.0  0.002275141629866903  0.004999999282809695  0.9999953255431179  1.0000
  As  As10      1.0  0.007493382342182798  0.005000000307367274  0.9996733012408549  1.0000
  As  As11      1.0  0.002506617736441594  0.007500000204911516  0.9996724861553657  1.0000
  As  As12      1.0  0.007330794357375605  0.007500014036438842  0.9999608059724175  1.0000
  Mn  Mn13      1.0  0.00036034428210811147  0.005000000307367274  0.9994966953011524  1.0000
  Mn  Mn14      1.0  0.005360344321420307  0.005000000307367274  0.9991886930044772  1.0000
  Mn  Mn15      1.0  0.004639655606003331  0.007500000204911516  0.9995410897922364  1.0000
  Mn  Mn16      1.0  0.009639655872116657  0.007500000204911516  0.9992330877700272  1.0000
  Fe  Fe13      1.0  0.008750000314497568  0.007500000204911516  0.9989798886697887  1.0000
  Fe  Fe14      1.0  0.0037500000483842414  0.007500000204911516  0.9992878909603881  1.0000
  Fe  Fe15      1.0  0.0012499999909279548  0.005000000307367274  0.9991338898099849  1.0000
  Fe  Fe16      1.0  0.006249999879039397  0.005000000307367274  0.9994418918363256  1.0000
  As  As13      1.0  0.002493382378470979  0.005000000307367274  0.9993652989440988  1.0000
  As  As14      1.0  0.007493382342182798  0.005000000307367274  0.9990572969137885  1.0000
  As  As15      1.0  0.002506617736441594  0.007500000204911516  0.9990564815599093  1.0000
  As  As16      1.0  0.007506617851354167  0.007500000204911516  0.9993644838607159  1.0000
