data_image0
_chemical_formula_structural       HIn20Pt20
_chemical_formula_sum              "H1 In20 Pt20"
_cell_length_a       7.107274597426926
_cell_length_b       14.794306087163884
_cell_length_c       100.35816955566406
_cell_angle_alpha    92.41203645342766
_cell_angle_beta     96.07030083009707
_cell_angle_gamma    91.71310244252462

_space_group_name_H-M_alt    "P 1"
_space_group_IT_number       1

loop_
  _space_group_symop_operation_xyz
  'x, y, z'

loop_
  _atom_site_type_symbol
  _atom_site_label
  _atom_site_symmetry_multiplicity
  _atom_site_fract_x
  _atom_site_fract_y
  _atom_site_fract_z
  _atom_site_occupancy
  H   H1        1.0  0.006546556388295986  0.00034825790185130407  5.1187919036048506e-05  1.0000
  In  In1       1.0  0.005279937622113622  0.0034615694229986342  0.9993967085681944  1.0000
  In  In2       1.0  0.0015299374490133487  0.007836569544044892  0.9995857698964701  1.0000
  In  In3       1.0  0.006083216338493912  0.004161840434676144  0.9997073888525576  1.0000
  In  In4       1.0  0.009833216827179319  0.009786840121973311  0.999518327454186  1.0000
  In  In5       1.0  0.006976658390327908  0.0015112987189803632  0.9994641509989141  1.0000
  In  In6       1.0  0.003226658387543682  0.005886298461757066  0.9996532123261184  1.0000
  In  In7       1.0  0.009120882334479104  0.004743233933804547  0.999396819674256  1.0000
  In  In8       1.0  0.005370882359044061  0.009118234054850806  0.9995858810040119  1.0000
  In  In9       1.0  0.0014389926644272878  0.002179905164372426  0.9993965971649007  1.0000
  In  In10      1.0  0.007688992892144514  0.00655490503323898  0.9995856584827351  1.0000
  In  In11      1.0  0.007779937624699084  0.002211569604568021  0.9997748312863742  1.0000
  In  In12      1.0  0.00410593057190945  0.006615008030854337  0.99998421997467  1.0000
  In  In13      1.0  0.008745615981376168  0.002819703482988256  8.078980561267183e-05  1.0000
  In  In14      1.0  0.0023582862496192092  0.008504554744735715  0.999919581472479  1.0000
  In  In15      1.0  0.00945811684039521  0.00021315949723533576  0.9998885978351159  1.0000
  In  In16      1.0  0.005490038189106255  0.004632344969924363  5.978201539788096e-05  1.0000
  In  In17      1.0  0.00162088209744672  0.0034932338631942297  0.9997749424009551  1.0000
  In  In18      1.0  0.0078010321942856035  0.007892008225851788  0.9999696225341203  1.0000
  In  In19      1.0  0.003938992653338158  0.0009299051568070348  0.9997747201787642  1.0000
  In  In20      1.0  0.00016678363739278817  0.005242557313466426  0.9999801681387421  1.0000
  Pt  Pt1       1.0  0.00340493737777092  0.0006490695793500507  0.9994912391189004  1.0000
  Pt  Pt2       1.0  0.009654937332818112  0.005024069322126752  0.9996803004339105  1.0000
  Pt  Pt3       1.0  0.00052034799399185  0.001477910504416865  0.9996389437361661  1.0000
  Pt  Pt4       1.0  0.004270348087346795  0.007102910191714032  0.9994498823348339  1.0000
  Pt  Pt5       1.0  0.002539526899658978  0.0041952285231497905  0.9995325958306764  1.0000
  Pt  Pt6       1.0  0.008789527127376205  0.008570228392016344  0.9997216571485109  1.0000
  Pt  Pt7       1.0  0.004273711654124189  0.002454830216967832  0.9996163224666499  1.0000
  Pt  Pt8       1.0  0.008023711633935102  0.008079830156444704  0.9994272610660319  1.0000
  Pt  Pt9       1.0  0.008786163065581236  0.0032183088105988233  0.9995552173839712  1.0000
  Pt  Pt10      1.0  0.005036163090146193  0.007593308931645081  0.9997442787137272  1.0000
  Pt  Pt11      1.0  0.005922928684839849  0.009375340341728758  0.9998740846026227  1.0000
  Pt  Pt12      1.0  0.0020253436636270506  0.003721987585931546  3.810242272856202e-05  1.0000
  Pt  Pt13      1.0  0.0030900756462872822  0.00024155009322760875  0.9999948177697997  1.0000
  Pt  Pt14      1.0  0.0066266729183592716  0.005845248649511109  0.9998179959073705  1.0000
  Pt  Pt15      1.0  0.005174618073940497  0.0029839725857501377  0.9999284557370249  1.0000
  Pt  Pt16      1.0  0.0009316325225848941  0.007112588344400943  7.881787523457199e-05  1.0000
  Pt  Pt17      1.0  0.0066446764242051575  0.0012144260884608636  0.9999804540319143  1.0000
  Pt  Pt18      1.0  0.0005237117039939538  0.006829829833654682  0.9998053837934663  1.0000
  Pt  Pt19      1.0  0.0013823994119617894  0.0019389258956664537  0.99992991590726  1.0000
  Pt  Pt20      1.0  0.007548159014769173  0.006216156071493084  9.874030217922486e-05  1.0000
