data_image0
_chemical_formula_structural       HGa12Ni8Ga12Ni8
_chemical_formula_sum              "H1 Ga24 Ni16"
_cell_length_a       7.1140971183776855
_cell_length_b       6.44580488423335
_cell_length_c       108.6748275756836
_cell_angle_alpha    79.16804812962582
_cell_angle_beta     90.0
_cell_angle_gamma    90.0

_space_group_name_H-M_alt    "P 1"
_space_group_IT_number       1

loop_
  _space_group_symop_operation_xyz
  'x, y, z'

loop_
  _atom_site_type_symbol
  _atom_site_label
  _atom_site_symmetry_multiplicity
  _atom_site_fract_x
  _atom_site_fract_y
  _atom_site_fract_z
  _atom_site_occupancy
  H   H1        1.0  0.009238582297156114  0.009811735707216551  4.2402388405910175e-05  1.0000
  Ga  Ga1       1.0  0.0024280842577987516  0.005708471777844058  0.9993582355503282  1.0000
  Ga  Ga2       1.0  0.0024280842577987516  0.0007084718955289531  0.9990616717364891  1.0000
  Ga  Ga3       1.0  0.007428083985501238  0.0032084718366865057  0.9989133896937643  1.0000
  Ga  Ga4       1.0  0.007428083985501238  0.008208472013213848  0.999209953504324  1.0000
  Ga  Ga5       1.0  0.00409475083369958  0.0018125361233785847  0.9988305928893181  1.0000
  Ga  Ga6       1.0  0.00409475083369958  0.0068125361527998085  0.9991271567015175  1.0000
  Ga  Ga7       1.0  0.009094750561402066  0.009312536388169599  0.9989788746555133  1.0000
  Ga  Ga8       1.0  0.009094750561402066  0.004312536211642256  0.9992754387442422  1.0000
  Ga  Ga9       1.0  0.0007614175509856566  0.005010503847637038  0.9990202729250467  1.0000
  Ga  Ga10      1.0  0.0007614175509856566  1.0503999799929794e-05  0.9993168370101119  1.0000
  Ga  Ga11      1.0  0.005761417409600409  0.0025105039064794855  0.9991685549677715  1.0000
  Ga  Ga12      1.0  0.005761417409600409  0.007510504083006828  0.9988719911532764  1.0000
  Ni  Ni1       1.0  0.0024280842577987516  0.0032183720784960132  0.9992105406662583  1.0000
  Ni  Ni2       1.0  0.0024280842577987516  0.008218372255023356  0.9989139768517632  1.0000
  Ni  Ni3       1.0  0.007428083985501238  0.000718372137338461  0.9993588227089829  1.0000
  Ni  Ni4       1.0  0.007428083985501238  0.0057183720196535654  0.9990622586235335  1.0000
  Ni  Ni5       1.0  0.00409475083369958  0.004302635969832748  0.9989782874975144  1.0000
  Ni  Ni6       1.0  0.00409475083369958  0.00930263614636009  0.999274851582308  1.0000
  Ni  Ni7       1.0  0.009094750561402066  0.0018026358815690768  0.999126569267645  1.0000
  Ni  Ni8       1.0  0.009094750561402066  0.006802635910990301  0.9988300054547896  1.0000
  Ga  Ga13      1.0  0.0024154308018121172  0.006030922506473611  0.9999327757578466  1.0000
  Ga  Ga14      1.0  0.0024280842577987516  0.0007084718955289531  0.9996547990873098  1.0000
  Ga  Ga15      1.0  0.007428083985501238  0.0032084718366865057  0.9995065170445852  1.0000
  Ga  Ga16      1.0  0.007404538628979842  0.008024941830709996  0.9998126713147067  1.0000
  Ga  Ga17      1.0  0.00409475083369958  0.0018125361233785847  0.9994237202401388  1.0000
  Ga  Ga18      1.0  0.004149426341612362  0.00687739994806801  0.9997120113825573  1.0000
  Ga  Ga19      1.0  0.009094750561402066  0.009312536388169599  0.9995720025548018  1.0000
  Ga  Ga20      1.0  0.009107335943010358  0.004189196263005593  0.9998786270000644  1.0000
  Ga  Ga21      1.0  0.0007614175509856566  0.005010503847637038  0.9996134008243354  1.0000
  Ga  Ga22      1.0  0.0008825264519858548  0.009989496387732753  0.9999187186974544  1.0000
  Ga  Ga23      1.0  0.005708867655063631  0.0026306354706604968  0.99977395732887  1.0000
  Ga  Ga24      1.0  0.005761417409600409  0.007510504083006828  0.9994651187783311  1.0000
  Ni  Ni9       1.0  0.002405432246580831  0.0032790660037147  0.9998042381538953  1.0000
  Ni  Ni10      1.0  0.0024280842577987516  0.008218372255023356  0.9995071044768179  1.0000
  Ni  Ni11      1.0  0.007594638425096869  0.000662264318933033  0.9999335622857217  1.0000
  Ni  Ni12      1.0  0.007428083985501238  0.0057183720196535654  0.999655386522822  1.0000
  Ni  Ni13      1.0  0.00409475083369958  0.004302635969832748  0.9995714151225691  1.0000
  Ni  Ni14      1.0  0.004097994839652121  0.009342906152227388  0.9998607959719579  1.0000
  Ni  Ni15      1.0  0.00912095814976571  0.0018075093601858255  0.9997144055251223  1.0000
  Ni  Ni16      1.0  0.009094750561402066  0.006802635910990301  0.9994231330798443  1.0000
