data_image0
_chemical_formula_structural       COIn6Na18
_chemical_formula_sum              "C1 O1 In6 Na18"
_cell_length_a       9.413142339582786
_cell_length_b       6.217032697156371
_cell_length_c       109.41278076171875
_cell_angle_alpha    90.554037559926
_cell_angle_beta     94.22725465257403
_cell_angle_gamma    88.84006255367112

_space_group_name_H-M_alt    "P 1"
_space_group_IT_number       1

loop_
  _space_group_symop_operation_xyz
  'x, y, z'

loop_
  _atom_site_type_symbol
  _atom_site_label
  _atom_site_symmetry_multiplicity
  _atom_site_fract_x
  _atom_site_fract_y
  _atom_site_fract_z
  _atom_site_occupancy
  C   C1        1.0  0.009419200676867865  0.004114859188088512  9.906540360009516e-05  1.0000
  O   O1        1.0  0.009419200676867865  0.004114859188088512  0.00020874202670712462  1.0000
  In  In1       1.0  0.00041666670305007134  0.0008297714945527905  0.9995588684043917  1.0000
  In  In2       1.0  0.009283497986365099  0.004092004824934731  0.9999403237698599  1.0000
  In  In3       1.0  0.004861111155212208  0.007496438027162033  0.9997589915322311  1.0000
  In  In4       1.0  0.007083333703782545  0.0008297714876693731  0.9989585003283156  1.0000
  In  In5       1.0  0.005972222627952311  0.00416310493880762  0.9993587460678237  1.0000
  In  In6       1.0  0.001527777828494039  0.007496438362538078  0.9991586228604687  1.0000
  Na  Na1       1.0  0.005719492253208429  0.00257392878379891  0.9999068399684456  1.0000
  Na  Na2       1.0  0.0012500000595364804  0.005829771308105172  0.9997089608061729  1.0000
  Na  Na3       1.0  0.0068055555379151166  0.009163104915374184  0.9995088379220942  1.0000
  Na  Na4       1.0  0.0026682472358561644  0.005981357341021908  1.0405734874221311e-05  1.0000
  Na  Na5       1.0  0.008543638938268004  0.009170228695126743  0.9998122928081011  1.0000
  Na  Na6       1.0  0.004027777848339532  0.0024964380623336  0.9996088991306813  1.0000
  Na  Na7       1.0  0.006740761589387151  0.007424451564470634  4.68274754553576e-05  1.0000
  Na  Na8       1.0  0.0020383935441371393  0.0008636003352240096  0.9998551592617408  1.0000
  Na  Na9       1.0  0.007638889241697661  0.004163104772586864  0.9996589298586225  1.0000
  Na  Na10      1.0  0.0023611112345941817  0.002496438228554356  0.9993087153398825  1.0000
  Na  Na11      1.0  0.00791666661374535  0.0058297712395227585  0.999108592454847  1.0000
  Na  Na12      1.0  0.0034722223104244154  0.009163104648580554  0.9989084695230146  1.0000
  Na  Na13      1.0  0.00958333402131044  0.005829771649060884  0.9994087767957649  1.0000
  Na  Na14      1.0  0.005138888924169766  0.009163105081594939  0.9992086535865269  1.0000
  Na  Na15      1.0  0.0006944445216213635  0.0024964380980920732  0.9990085310035229  1.0000
  Na  Na16      1.0  0.003194444541466857  0.007496438193382789  0.9994588071966638  1.0000
  Na  Na17      1.0  0.008750000317527895  0.0008297714712574029  0.9992586843915809  1.0000
  Na  Na18      1.0  0.004305555617297091  0.004163104817148935  0.9990585617295811  1.0000
