data_image0
_chemical_formula_structural       COSi4Ni8Si4Ni8Si4Ni8
_chemical_formula_sum              "C1 O1 Si12 Ni24"
_cell_length_a       5.030783176422119
_cell_length_b       8.070381310640864
_cell_length_c       32.30215072631836
_cell_angle_alpha    62.15290292252416
_cell_angle_beta     90.0
_cell_angle_gamma    90.0

_space_group_name_H-M_alt    "P 1"
_space_group_IT_number       1

loop_
  _space_group_symop_operation_xyz
  'x, y, z'

loop_
  _atom_site_type_symbol
  _atom_site_label
  _atom_site_symmetry_multiplicity
  _atom_site_fract_x
  _atom_site_fract_y
  _atom_site_fract_z
  _atom_site_occupancy
  C   C1        1.0  0.003737237750178502  0.003412032356246563  0.999492393051714  1.0000
  O   O1        1.0  0.003737237750178502  0.003412032356246563  0.9998638851736487  1.0000
  Si  Si1       1.0  0.007892136232731207  0.008856661083816459  0.9983828744490703  1.0000
  Si  Si2       1.0  0.002107863759863803  0.0011433391458880683  0.9986995299541612  1.0000
  Si  Si3       1.0  0.002892136328996086  0.0061433389997124594  0.998699530008125  1.0000
  Si  Si4       1.0  0.007107863293349385  0.003856660968964195  0.998382874886875  1.0000
  Ni  Ni1       1.0  0.009582338704846498  0.0020516563655184066  0.9991770450705939  1.0000
  Ni  Ni2       1.0  0.00041766119518612567  0.007948343603158247  0.9990723982664363  1.0000
  Ni  Ni3       1.0  0.00458233861598661  0.0029483434883059846  0.9990723982429356  1.0000
  Ni  Ni4       1.0  0.00541766119148363  0.00705165648037067  0.9991770446327891  1.0000
  Ni  Ni5       1.0  0.008295109165914161  0.0055999379622365085  0.9987629469941315  1.0000
  Ni  Ni6       1.0  0.0017048906415560784  0.004400061745412274  0.9983194579313315  1.0000
  Ni  Ni7       1.0  0.003295109447303811  0.009400061599236665  0.9983194575239895  1.0000
  Ni  Ni8       1.0  0.0067048903601664295  0.0005999381084121172  0.9987629469401679  1.0000
  Si  Si5       1.0  0.007892136232731207  0.008856661083816459  0.9972158364683456  1.0000
  Si  Si6       1.0  0.002107863759863803  0.0011433391458880683  0.9975324915121311  1.0000
  Si  Si7       1.0  0.002892136328996086  0.0061433389997124594  0.9975324915660948  1.0000
  Si  Si8       1.0  0.007107863293349385  0.003856660968964195  0.9972158364448449  1.0000
  Ni  Ni9       1.0  0.009582338704846498  0.0020516563655184066  0.9980100066285637  1.0000
  Ni  Ni10      1.0  0.00041766119518612567  0.007948343603158247  0.9979053598244061  1.0000
  Ni  Ni11      1.0  0.00458233861598661  0.0029483434883059846  0.9979053598009053  1.0000
  Ni  Ni12      1.0  0.00541766119148363  0.00705165648037067  0.9980100066520644  1.0000
  Ni  Ni13      1.0  0.008295109165914161  0.0055999379622365085  0.9975959085521013  1.0000
  Ni  Ni14      1.0  0.0017048906415560784  0.004400061745412274  0.9971524194893012  1.0000
  Ni  Ni15      1.0  0.003295109447303811  0.009400061599236665  0.997152419543265  1.0000
  Ni  Ni16      1.0  0.0067048903601664295  0.0005999381084121172  0.9975959084981376  1.0000
  Si  Si9       1.0  0.007892136232731207  0.008856661083816459  0.9960487980263154  1.0000
  Si  Si10      1.0  0.002107863759863803  0.0011433391458880683  0.9963654530701008  1.0000
  Si  Si11      1.0  0.002892136328996086  0.0061433389997124594  0.9963654531240645  1.0000
  Si  Si12      1.0  0.007107863293349385  0.003856660968964195  0.9960487980028147  1.0000
  Ni  Ni17      1.0  0.009582338704846498  0.0020516563655184066  0.9968429681865335  1.0000
  Ni  Ni18      1.0  0.00041766119518612567  0.007948343603158247  0.996738321382376  1.0000
  Ni  Ni19      1.0  0.00458233861598661  0.0029483434883059846  0.9967383213588752  1.0000
  Ni  Ni20      1.0  0.00541766119148363  0.00705165648037067  0.9968429682100343  1.0000
  Ni  Ni21      1.0  0.008295109165914161  0.0055999379622365085  0.9964288701100711  1.0000
  Ni  Ni22      1.0  0.0017048906415560784  0.004400061745412274  0.9959853810472711  1.0000
  Ni  Ni23      1.0  0.003295109447303811  0.009400061599236665  0.9959853811012347  1.0000
  Ni  Ni24      1.0  0.0067048903601664295  0.0005999381084121172  0.9964288700561075  1.0000
