data_image0
_chemical_formula_structural       COAg6As6Se12
_chemical_formula_sum              "C1 O1 Ag6 As6 Se12"
_cell_length_a       10.486526261842195
_cell_length_b       7.023939379098909
_cell_length_c       101.45957946777344
_cell_angle_alpha    96.1217010028077
_cell_angle_beta     98.21321106910655
_cell_angle_gamma    71.34179049527599

_space_group_name_H-M_alt    "P 1"
_space_group_IT_number       1

loop_
  _space_group_symop_operation_xyz
  'x, y, z'

loop_
  _atom_site_type_symbol
  _atom_site_label
  _atom_site_symmetry_multiplicity
  _atom_site_fract_x
  _atom_site_fract_y
  _atom_site_fract_z
  _atom_site_occupancy
  C   C1        1.0  0.002037777834603645  0.0075704192646898795  0.0001255599087299954  1.0000
  O   O1        1.0  0.002037777834603645  0.0075704192646898795  0.00024383384975797524  1.0000
  Ag  Ag1       1.0  0.004375000241583753  0.008740340326862044  0.9994708306491079  1.0000
  Ag  Ag2       1.0  0.008125000664355323  0.008740340217681528  0.9996000264282859  1.0000
  Ag  Ag3       1.0  0.0006249999603651654  0.008740340370910926  0.999341634871539  1.0000
  Ag  Ag4       1.0  0.006104262033866563  0.008053212037951493  0.9999137658892295  1.0000
  Ag  Ag5       1.0  0.009495133863007323  0.008896901879683661  0.9999907200217103  1.0000
  Ag  Ag6       1.0  0.001875000022648477  0.008740340726309812  0.9997292223020526  1.0000
  As  As1       1.0  0.005000000060395938  0.00374034083696031  0.9996646244635538  1.0000
  As  As2       1.0  0.007500000090593908  0.003740340524354716  0.9994062328084634  1.0000
  As  As3       1.0  0.0012500000150989846  0.0037403405057503634  0.999535428686698  1.0000
  As  As4       1.0  0.0060399799943285796  0.0032896743136618255  3.565460398783396e-05  1.0000
  As  As5       1.0  0.009059722934357443  0.0039007426359513844  0.9998364387698638  1.0000
  As  As6       1.0  0.0027781784377223177  0.0033099980463702633  0.9999141189076207  1.0000
  Se  Se1       1.0  0.003408351546131191  0.0013802542545189765  0.9996975258793613  1.0000
  Se  Se2       1.0  0.00590835157632916  0.0013802542086194948  0.9994391342262399  1.0000
  Se  Se3       1.0  0.009658351621626114  0.0013802542731233289  0.9995683300011267  1.0000
  Se  Se4       1.0  0.0028416487181010396  0.006100427001349522  0.9995025269793002  1.0000
  Se  Se5       1.0  0.006591648952135301  0.006100426979011182  0.9996317230500685  1.0000
  Se  Se6       1.0  0.009091648982333271  0.006100426666405588  0.9993733311012423  1.0000
  Se  Se7       1.0  0.004623528773059894  0.0012658327341185257  7.761268469610818e-05  1.0000
  Se  Se8       1.0  0.007002160145290402  0.0013743096538769313  0.9998358719110688  1.0000
  Se  Se9       1.0  0.0009942729483487654  0.0011030974873542769  0.9999456793931724  1.0000
  Se  Se10      1.0  0.00417525011226397  0.005904948528422025  0.9999147048996838  1.0000
  Se  Se11      1.0  0.008517143942751222  0.006116233076402283  4.037410705829993e-05  1.0000
  Se  Se12      1.0  0.000341648664310907  0.006100426791398163  0.9997609189239204  1.0000
