data_image0
_chemical_formula_structural       COFe4As8Fe4As8Fe4As8
_chemical_formula_sum              "C1 O1 Fe12 As24"
_cell_length_a       12.403247844352713
_cell_length_b       6.083756598740953
_cell_length_c       104.87062072753906
_cell_angle_alpha    61.46819699082662
_cell_angle_beta     76.45056750204894
_cell_angle_gamma    83.57485641330025

_space_group_name_H-M_alt    "P 1"
_space_group_IT_number       1

loop_
  _space_group_symop_operation_xyz
  'x, y, z'

loop_
  _atom_site_type_symbol
  _atom_site_label
  _atom_site_symmetry_multiplicity
  _atom_site_fract_x
  _atom_site_fract_y
  _atom_site_fract_z
  _atom_site_occupancy
  C   C1        1.0  0.008462620491120768  0.002708511997368736  0.999690456431977  1.0000
  O   O1        1.0  0.008462620491120768  0.002708511997368736  0.9998048828044995  1.0000
  Fe  Fe1       1.0  0.0003335788280065746  0.009961406533169324  0.9994426308587316  1.0000
  Fe  Fe2       1.0  0.005312944685265649  0.00020841280568765477  0.9995702609184475  1.0000
  Fe  Fe3       1.0  0.002861901080227312  0.005343140902980999  0.9996385306198228  1.0000
  Fe  Fe4       1.0  0.007914394270255067  0.005164024875587271  0.9994976633469548  1.0000
  As  As1       1.0  0.0023099333625090893  0.001780538984885622  0.9996315898853093  1.0000
  As  As2       1.0  0.0071455270940069  0.0018103877065605489  0.9994993735830121  1.0000
  As  As3       1.0  0.0036668115024438112  0.008127240458434435  0.9996871002555087  1.0000
  As  As4       1.0  0.008548393313974135  0.008225434585873466  0.9995337822824053  1.0000
  As  As5       1.0  0.001282527610649518  0.007837746732286788  0.9996352971923834  1.0000
  As  As6       1.0  0.0060574112652203365  0.006812308982678479  0.999528843562369  1.0000
  As  As7       1.0  0.0046312520222403526  0.0032686963040484567  0.9996451430344496  1.0000
  As  As8       1.0  0.009605906753988168  0.0032815552496720957  0.9994989306094691  1.0000
  Fe  Fe5       1.0  0.0003627193590744741  3.85935017886156e-05  0.9991639410660115  1.0000
  Fe  Fe6       1.0  0.005362719059396347  3.85935017886156e-05  0.9993024874912892  1.0000
  Fe  Fe7       1.0  0.0028627191706170957  0.005038593438951448  0.9993717604142538  1.0000
  Fe  Fe8       1.0  0.007862719257122121  0.005038593438951448  0.9992332142222283  1.0000
  As  As9       1.0  0.0021664210607726772  0.0018301647084742684  0.9993414114001877  1.0000
  As  As10      1.0  0.007166421147277703  0.0018301647084742684  0.9992028652081621  1.0000
  As  As11      1.0  0.0035821345129033464  0.008272708696543922  0.9993990236043184  1.0000
  As  As12      1.0  0.008559017366966539  0.008247022169428629  0.9992635632362944  1.0000
  As  As13      1.0  0.0010590174689188924  0.006830164931508096  0.999372096533105  1.0000
  As  As14      1.0  0.006059017169240765  0.006830164931508096  0.9992335503517803  1.0000
  As  As15      1.0  0.004666420949551929  0.0032470222948851562  0.999371424283606  1.0000
  As  As16      1.0  0.009666420727110433  0.0032470222948851562  0.9992328781001412  1.0000
  Fe  Fe9       1.0  0.0003627193590744741  3.85935017886156e-05  0.9988868487435908  1.0000
  Fe  Fe10      1.0  0.005362719059396347  3.85935017886156e-05  0.9990253948846868  1.0000
  Fe  Fe11      1.0  0.0028627191706170957  0.005038593438951448  0.9990946678076513  1.0000
  Fe  Fe12      1.0  0.007862719257122121  0.005038593438951448  0.9989561216156259  1.0000
  As  As17      1.0  0.0021664210607726772  0.0018301647084742684  0.9990643187935853  1.0000
  As  As18      1.0  0.007166421147277703  0.0018301647084742684  0.9989257726015597  1.0000
  As  As19      1.0  0.0035590172804615136  0.008247022169428629  0.999125017390081  1.0000
  As  As20      1.0  0.008559017366966539  0.008247022169428629  0.9989864711980555  1.0000
  As  As21      1.0  0.0010590174689188924  0.006830164931508096  0.9990950039265025  1.0000
  As  As22      1.0  0.006059017169240765  0.006830164931508096  0.9989564577451778  1.0000
  As  As23      1.0  0.004666420949551929  0.0032470222948851562  0.9990943316770036  1.0000
  As  As24      1.0  0.009666420727110433  0.0032470222948851562  0.9989557854935387  1.0000
