data_image0
_chemical_formula_structural       CORu6Sb6Ti6
_chemical_formula_sum              "C1 O1 Ru6 Sb6 Ti6"
_cell_length_a       6.182829856872559
_cell_length_b       7.572388870114192
_cell_length_c       103.2955551147461
_cell_angle_alpha    94.34775326795096
_cell_angle_beta     90.0
_cell_angle_gamma    114.0948435258915

_space_group_name_H-M_alt    "P 1"
_space_group_IT_number       1

loop_
  _space_group_symop_operation_xyz
  'x, y, z'

loop_
  _atom_site_type_symbol
  _atom_site_label
  _atom_site_symmetry_multiplicity
  _atom_site_fract_x
  _atom_site_fract_y
  _atom_site_fract_z
  _atom_site_occupancy
  C   C1        1.0  0.007304553428722177  0.004922363118813217  8.359782612571247e-05  1.0000
  O   O1        1.0  0.007304553428722177  0.004922363118813217  0.00019976956561019283  1.0000
  Ru  Ru1       1.0  0.003541666577250427  0.002342897027759092  0.9995351279856529  1.0000
  Ru  Ru2       1.0  0.009375000132700808  0.004009563849449349  0.999266517252922  1.0000
  Ru  Ru3       1.0  0.00764649385633261  0.00057376970740637  0.9998097330152639  1.0000
  Ru  Ru4       1.0  0.006458333177220897  0.008176230227700034  0.9994008226210005  1.0000
  Ru  Ru5       1.0  0.004742557091213234  0.004604664622627991  0.9999264732203358  1.0000
  Ru  Ru6       1.0  0.00062500005822645  0.0065095636763997594  0.999669433066719  1.0000
  Sb  Sb1       1.0  0.002500000089061834  0.005259563762924554  0.9994679751598206  1.0000
  Sb  Sb2       1.0  0.0007650712317236011  0.0018097708554779123  1.0057736469075105e-05  1.0000
  Sb  Sb3       1.0  0.006771189205367332  0.0035172788673710565  0.9997276726302579  1.0000
  Sb  Sb4       1.0  0.005416666625217954  0.0010928969790888951  0.999333669789488  1.0000
  Sb  Sb5       1.0  0.003626397498981894  0.007646520568051197  0.9998768858926061  1.0000
  Sb  Sb6       1.0  0.00958333347665111  0.009426230681955205  0.9996022805309044  1.0000
  Ti  Ti1       1.0  0.001862051889225375  0.0035513555761699915  0.9997405970647083  1.0000
  Ti  Ti2       1.0  0.007500000017135784  0.005259563762924554  0.9994679751598206  1.0000
  Ti  Ti3       1.0  0.005803721546186843  0.0018121707017735365  0.9999750153407299  1.0000
  Ti  Ti4       1.0  0.00458333354857716  0.009426230681955205  0.9996022805309044  1.0000
  Ti  Ti5       1.0  0.0004166666406575774  0.0010928969790888951  0.999333669789488  1.0000
  Ti  Ti6       1.0  0.008596582220620177  0.007614948752056348  0.9998556603752277  1.0000
