data_image0
_chemical_formula_structural       COAl5Ni5Al5Ni5Al5Ni5Al5Ni5
_chemical_formula_sum              "C1 O1 Al20 Ni20"
_cell_length_a       6.520947676363255
_cell_length_b       8.248418807983398
_cell_length_c       105.35772705078125
_cell_angle_alpha    90.0
_cell_angle_beta     104.96321694084276
_cell_angle_gamma    71.56505130686396

_space_group_name_H-M_alt    "P 1"
_space_group_IT_number       1

loop_
  _space_group_symop_operation_xyz
  'x, y, z'

loop_
  _atom_site_type_symbol
  _atom_site_label
  _atom_site_symmetry_multiplicity
  _atom_site_fract_x
  _atom_site_fract_y
  _atom_site_fract_z
  _atom_site_occupancy
  C   C1        1.0  0.009395953000875047  0.000802023460877799  0.00014853802893739635  1.0000
  O   O1        1.0  0.009395953000875047  0.000802023460877799  0.0002624353675565794  1.0000
  Al  Al1       1.0  0.0066040471142733365  0.0014999999325282269  0.9997859215590137  1.0000
  Al  Al2       1.0  0.000604046992866888  0.0004999999786871306  0.9996900367211083  1.0000
  Al  Al3       1.0  0.002604046929034631  0.0024999999788379032  0.9998818068332925  1.0000
  Al  Al4       1.0  0.004604047021653984  0.004500000109239611  7.35763822412289e-05  1.0000
  Al  Al5       1.0  0.00860404689398947  0.0035000001411557395  0.9999776916686978  1.0000
  Ni  Ni1       1.0  0.0066040471142733365  0.0014999999325282269  2.5634027969704422e-05  1.0000
  Ni  Ni2       1.0  0.000604046992866888  0.0004999999786871306  0.9999297491900643  1.0000
  Ni  Ni3       1.0  0.002604046929034631  0.0024999999788379032  0.9996420943643366  1.0000
  Ni  Ni4       1.0  0.004604047021653984  0.004500000109239611  0.9998338639132852  1.0000
  Ni  Ni5       1.0  0.00860404689398947  0.0035000001411557395  0.9997379791997417  1.0000
  Al  Al6       1.0  0.0066040471142733365  0.0014999999325282269  0.9993064974697053  1.0000
  Al  Al7       1.0  0.000604046992866888  0.0004999999786871306  0.9992106126318  1.0000
  Al  Al8       1.0  0.002604046929034631  0.0024999999788379032  0.9994023824611163  1.0000
  Al  Al9       1.0  0.004604047021653984  0.004500000109239611  0.9995941520100651  1.0000
  Al  Al10      1.0  0.00860404689398947  0.0035000001411557395  0.9994982672965216  1.0000
  Ni  Ni6       1.0  0.0066040471142733365  0.0014999999325282269  0.9995462096557935  1.0000
  Ni  Ni7       1.0  0.000604046992866888  0.0004999999786871306  0.9994503248178881  1.0000
  Ni  Ni8       1.0  0.002604046929034631  0.0024999999788379032  0.9991626702750283  1.0000
  Ni  Ni9       1.0  0.004604047021653984  0.004500000109239611  0.9993544401068448  1.0000
  Ni  Ni10      1.0  0.00860404689398947  0.0035000001411557395  0.9992585551104334  1.0000
  Al  Al11      1.0  0.0066040471142733365  0.00650000001382287  0.9997859215590137  1.0000
  Al  Al12      1.0  0.000604046992866888  0.0055000001164363845  0.9996900367211083  1.0000
  Al  Al13      1.0  0.002604046929034631  0.007500000060132545  0.9998818068332925  1.0000
  Al  Al14      1.0  0.004604047021653984  0.009499999964715802  7.35763822412289e-05  1.0000
  Al  Al15      1.0  0.00860404689398947  0.008499999996631933  0.9999776916686978  1.0000
  Ni  Ni11      1.0  0.0066040471142733365  0.00650000001382287  2.5634027969704422e-05  1.0000
  Ni  Ni12      1.0  0.000604046992866888  0.0055000001164363845  0.9999297491900643  1.0000
  Ni  Ni13      1.0  0.002604046929034631  0.007500000060132545  0.9996420943643366  1.0000
  Ni  Ni14      1.0  0.004604047021653984  0.009499999964715802  0.9998338639132852  1.0000
  Ni  Ni15      1.0  0.00860404689398947  0.008499999996631933  0.9997379791997417  1.0000
  Al  Al16      1.0  0.0066040471142733365  0.00650000001382287  0.9993064974697053  1.0000
  Al  Al17      1.0  0.000604046992866888  0.0055000001164363845  0.9992106126318  1.0000
  Al  Al18      1.0  0.002604046929034631  0.007500000060132545  0.9994023824611163  1.0000
  Al  Al19      1.0  0.004604047021653984  0.009499999964715802  0.9995941520100651  1.0000
  Al  Al20      1.0  0.00860404689398947  0.008499999996631933  0.9994982672965216  1.0000
  Ni  Ni16      1.0  0.0066040471142733365  0.00650000001382287  0.9995462096557935  1.0000
  Ni  Ni17      1.0  0.000604046992866888  0.0055000001164363845  0.9994503248178881  1.0000
  Ni  Ni18      1.0  0.002604046929034631  0.007500000060132545  0.9991626702750283  1.0000
  Ni  Ni19      1.0  0.004604047021653984  0.009499999964715802  0.9993544401068448  1.0000
  Ni  Ni20      1.0  0.00860404689398947  0.008499999996631933  0.9992585551104334  1.0000
