data_image0
_chemical_formula_structural       COAg18Sn6
_chemical_formula_sum              "C1 O1 Ag18 Sn6"
_cell_length_a       4.954258918762207
_cell_length_b       12.241832738473155
_cell_length_c       102.52625274658203
_cell_angle_alpha    100.19410157955811
_cell_angle_beta     90.0
_cell_angle_gamma    90.0

_space_group_name_H-M_alt    "P 1"
_space_group_IT_number       1

loop_
  _space_group_symop_operation_xyz
  'x, y, z'

loop_
  _atom_site_type_symbol
  _atom_site_label
  _atom_site_symmetry_multiplicity
  _atom_site_fract_x
  _atom_site_fract_y
  _atom_site_fract_z
  _atom_site_occupancy
  C   C1        1.0  4.799999938235687e-09  0.0075576217969688265  0.00017016697285287622  1.0000
  O   O1        1.0  4.799999938235687e-09  0.0075576217969688265  0.0002872104031668269  1.0000
  Ag  Ag1       1.0  0.005000000180464866  0.005576545017580939  0.9996599244674628  1.0000
  Ag  Ag2       1.0  0.005000005068054985  0.002194295921392706  0.9999287227545056  1.0000
  Ag  Ag3       1.0  0.005000000180464866  0.008909879002272704  0.9993955511764571  1.0000
  Ag  Ag4       1.0  2.999999961397304e-10  0.0027470674919994717  0.9994877758536594  1.0000
  Ag  Ag5       1.0  0.009999992841560317  0.009451374290764663  0.9997516117502683  1.0000
  Ag  Ag6       1.0  3.199999839306633e-09  0.006051658018539554  0.9999996389669485  1.0000
  Ag  Ag7       1.0  2.999999961397304e-10  0.0052779932317559815  0.9994849303800777  1.0000
  Ag  Ag8       1.0  3.199999839306633e-09  0.0018976556973553517  0.9997533571691157  1.0000
  Ag  Ag9       1.0  6.399999678613266e-09  0.00855473880375211  0.9999974017984746  1.0000
  Ag  Ag10      1.0  0.005000000180464866  0.0030456198962026866  0.999662770244792  1.0000
  Ag  Ag11      1.0  0.0050000013083702785  0.00971870539513955  0.999935396081166  1.0000
  Ag  Ag12      1.0  0.005000000180464866  0.006378953262516194  0.9993983966500388  1.0000
  Ag  Ag13      1.0  5.1999999629679506e-09  0.003573704106241382  0.9999976614802956  1.0000
  Ag  Ag14      1.0  2.999999961397304e-10  0.0002812951675846632  0.9994854540828764  1.0000
  Ag  Ag15      1.0  0.009999999608992791  0.006976600388654198  0.9997432073841359  1.0000
  Ag  Ag16      1.0  0.005000000180464866  0.0013756506093687334  0.9993978729902178  1.0000
  Ag  Ag17      1.0  0.005000000180464866  0.00804231780577944  0.9996622462480466  1.0000
  Ag  Ag18      1.0  0.0050000031882126315  0.004736497324885765  0.999947451175129  1.0000
  Sn  Sn1       1.0  0.009999998105118908  0.00440834748215766  0.9997442719634212  1.0000
  Sn  Sn2       1.0  3.399999851672765e-09  0.001071281893872756  2.2638502917214498e-05  1.0000
  Sn  Sn3       1.0  2.999999961397304e-10  0.007763873207365956  0.9994864431327734  1.0000
  Sn  Sn4       1.0  0.005000000180464866  0.003893072977717091  0.9993968838908094  1.0000
  Sn  Sn5       1.0  0.005000000180464866  0.0005597394568090194  0.9996612574822957  1.0000
  Sn  Sn6       1.0  0.005000003940149573  0.007205835682115346  0.9999333411729089  1.0000
