data_image0
_chemical_formula_structural       COIr6Re18
_chemical_formula_sum              "C1 O1 Ir6 Re18"
_cell_length_a       7.310240845026889
_cell_length_b       4.793185555979473
_cell_length_c       100.7395248413086
_cell_angle_alpha    89.90209586254488
_cell_angle_beta     93.95119693336677
_cell_angle_gamma    90.20584362593938

_space_group_name_H-M_alt    "P 1"
_space_group_IT_number       1

loop_
  _space_group_symop_operation_xyz
  'x, y, z'

loop_
  _atom_site_type_symbol
  _atom_site_label
  _atom_site_symmetry_multiplicity
  _atom_site_fract_x
  _atom_site_fract_y
  _atom_site_fract_z
  _atom_site_occupancy
  C   C1        1.0  0.007987715028238895  0.003050262879616111  6.310634786366928e-05  1.0000
  O   O1        1.0  0.007987715028238895  0.003050262879616111  0.0001822250823718319  1.0000
  Ir  Ir1       1.0  0.009583333891825595  0.00916666739728624  0.9994810857682834  1.0000
  Ir  Ir2       1.0  0.0006944444543769796  0.0025000001283996837  0.999142042763416  1.0000
  Ir  Ir3       1.0  0.00513888907732327  0.005833333568033702  0.9993115644133044  1.0000
  Ir  Ir4       1.0  0.0029166666700721072  0.009166667150819697  0.999989650163859  1.0000
  Ir  Ir5       1.0  0.004027777745993665  0.00250000005563931  0.9996506074692133  1.0000
  Ir  Ir6       1.0  0.008472222560495991  0.005833333690590182  0.9998201291200436  1.0000
  Re  Re1       1.0  0.004305555451122043  0.0008333333786566499  0.9991844231947242  1.0000
  Re  Re2       1.0  0.008750000776440463  0.0041666669677392736  0.9993539448481125  1.0000
  Re  Re3       1.0  0.003194444630608532  0.007500000426615204  0.9995234661864864  1.0000
  Re  Re4       1.0  0.007083333524038008  0.004166666709452201  0.9990996626401224  1.0000
  Re  Re5       1.0  0.0015277777613181482  0.007500000558961838  0.9992691839803801  1.0000
  Re  Re6       1.0  0.005972222192708404  0.0008333333913594734  0.9994387054001801  1.0000
  Re  Re7       1.0  0.007916666639423142  0.009166666750395838  0.999226803560325  1.0000
  Re  Re8       1.0  0.002361111259815352  0.0024999999957146545  0.9993963252650384  1.0000
  Re  Re9       1.0  0.0034722223357369097  0.005833333701057128  0.9990572822078366  1.0000
  Re  Re10      1.0  0.007638888934294764  0.0008333334040622968  0.9996929876056359  1.0000
  Re  Re11      1.0  0.0020833334269829504  0.004166666720595939  0.9998625092430495  1.0000
  Re  Re12      1.0  0.006527778113781253  0.007500000160568354  3.2030893257170796e-05  1.0000
  Re  Re13      1.0  0.0004166666534705843  0.004166666853450166  0.9996082267415868  1.0000
  Re  Re14      1.0  0.0048611113721948925  0.007500000293591778  0.999777748391954  1.0000
  Re  Re15      1.0  0.009305556186697218  0.000833333370896872  0.9999472701094851  1.0000
  Re  Re16      1.0  0.0012500000561897703  0.009166667284519913  0.9997353682548653  1.0000
  Re  Re17      1.0  0.005694444487580026  0.00250000011691755  0.9999048893788297  1.0000
  Re  Re18      1.0  0.006805555818909631  0.005833333435010277  0.999565846618772  1.0000
