data_image0
_chemical_formula_structural       HMo3Pd12Mo3Pd12
_chemical_formula_sum              "H1 Mo6 Pd24"
_cell_length_a       5.612499713897705
_cell_length_b       11.577686071728351
_cell_length_c       99.16340637207031
_cell_angle_alpha    94.01228347005461
_cell_angle_beta     90.0
_cell_angle_gamma    96.9609112298695

_space_group_name_H-M_alt    "P 1"
_space_group_IT_number       1

loop_
  _space_group_symop_operation_xyz
  'x, y, z'

loop_
  _atom_site_type_symbol
  _atom_site_label
  _atom_site_symmetry_multiplicity
  _atom_site_fract_x
  _atom_site_fract_y
  _atom_site_fract_z
  _atom_site_occupancy
  H   H1        1.0  0.006951137726450714  0.0017451785169908815  0.0001922514062870907  1.0000
  Mo  Mo1       1.0  0.0017581729837948257  0.0009733199446166437  0.999926258026807  1.0000
  Mo  Mo2       1.0  0.004258172950607383  0.0009733199446166437  0.9996811796121009  1.0000
  Mo  Mo3       1.0  0.0017581729837948257  0.0009733199446166437  0.9994361008968572  1.0000
  Pd  Pd1       1.0  0.004744832902605559  0.0029199597526093483  2.385399715093394e-05  1.0000
  Pd  Pd2       1.0  0.00025516705298004634  0.004961296752356616  0.9998771442599701  1.0000
  Pd  Pd3       1.0  0.003261178867974851  0.006985343481336742  0.9999753719888019  1.0000
  Pd  Pd4       1.0  0.00127151298688992  0.009026680156121679  7.374156528496703e-05  1.0000
  Pd  Pd5       1.0  0.0022448329357930017  0.0029199597526093483  0.9997787749813698  1.0000
  Pd  Pd6       1.0  0.002755167185729819  0.004961296752356616  0.9996320655447265  1.0000
  Pd  Pd7       1.0  0.0007611787352250779  0.006985343481336742  0.9997302935740957  1.0000
  Pd  Pd8       1.0  0.0037715130366710843  0.009026680156121679  0.9998286625495039  1.0000
  Pd  Pd9       1.0  0.004744832902605559  0.0029199597526093483  0.9995336962661262  1.0000
  Pd  Pd10      1.0  0.00025516705298004634  0.004961296752356616  0.9993869868294828  1.0000
  Pd  Pd11      1.0  0.003261178867974851  0.006985343481336742  0.9994852148588521  1.0000
  Pd  Pd12      1.0  0.00127151298688992  0.009026680156121679  0.9995835838342602  1.0000
  Mo  Mo4       1.0  0.006758173083357155  0.0009733199446166437  0.999926258026807  1.0000
  Mo  Mo5       1.0  0.009258173216106927  0.0009733199446166437  0.9996811796121009  1.0000
  Mo  Mo6       1.0  0.006758173083357155  0.0009733199446166437  0.9994361008968572  1.0000
  Pd  Pd13      1.0  0.009744833168105104  0.0029199597526093483  2.385399715093394e-05  1.0000
  Pd  Pd14      1.0  0.005255167152542375  0.004961296752356616  0.9998771442599701  1.0000
  Pd  Pd15      1.0  0.00826117896753718  0.006985343481336742  0.9999753719888019  1.0000
  Pd  Pd16      1.0  0.006271513003483642  0.009026680156121679  7.374156528496703e-05  1.0000
  Pd  Pd17      1.0  0.0072448330353553315  0.0029199597526093483  0.9997787749813698  1.0000
  Pd  Pd18      1.0  0.007755167285292147  0.004961296752356616  0.9996320655447265  1.0000
  Pd  Pd19      1.0  0.005761178834787407  0.006985343481336742  0.9997302935740957  1.0000
  Pd  Pd20      1.0  0.008771513136233413  0.009026680156121679  0.9998286625495039  1.0000
  Pd  Pd21      1.0  0.009744833168105104  0.0029199597526093483  0.9995336962661262  1.0000
  Pd  Pd22      1.0  0.005255167152542375  0.004961296752356616  0.9993869868294828  1.0000
  Pd  Pd23      1.0  0.00826117896753718  0.006985343481336742  0.9994852148588521  1.0000
  Pd  Pd24      1.0  0.006271513003483642  0.009026680156121679  0.9995835838342602  1.0000
