data_image0
_chemical_formula_structural       HCr16
_chemical_formula_sum              "H1 Cr16"
_cell_length_a       4.940990447998047
_cell_length_b       4.940990537064839
_cell_length_c       98.2401123046875
_cell_angle_alpha    90.0
_cell_angle_beta     90.0
_cell_angle_gamma    109.47122075806918

_space_group_name_H-M_alt    "P 1"
_space_group_IT_number       1

loop_
  _space_group_symop_operation_xyz
  'x, y, z'

loop_
  _atom_site_type_symbol
  _atom_site_label
  _atom_site_symmetry_multiplicity
  _atom_site_fract_x
  _atom_site_fract_y
  _atom_site_fract_z
  _atom_site_occupancy
  H   H1        1.0  0.006250000029086607  0.008749999680123487  0.00015268758298044317  1.0000
  Cr  Cr1       1.0  0.0037499999582645  0.0037499999200308718  0.0  1.0000
  Cr  Cr2       1.0  0.0012500000063961837  0.0012499999400231538  0.9997946715163629  1.0000
  Cr  Cr3       1.0  0.0037499999582645  0.0037499999200308718  0.999589343032726  1.0000
  Cr  Cr4       1.0  0.006250000010165966  0.0012499999400231538  0.9993840142457268  1.0000
  Cr  Cr5       1.0  0.0037499999800794546  0.008749999680123487  0.0  1.0000
  Cr  Cr6       1.0  0.0012500000339280282  0.0062499999999999995  0.9997946715163629  1.0000
  Cr  Cr7       1.0  0.0037499999800794546  0.008749999680123487  0.999589343032726  1.0000
  Cr  Cr8       1.0  0.006249999849208763  0.0062499999999999995  0.9993840142457268  1.0000
  Cr  Cr9       1.0  0.00875000024476785  0.0037499999200308718  0.0  1.0000
  Cr  Cr10      1.0  0.006250000010165966  0.0012499999400231538  0.9997946715163629  1.0000
  Cr  Cr11      1.0  0.00875000024476785  0.0037499999200308718  0.999589343032726  1.0000
  Cr  Cr12      1.0  0.0012500000063961837  0.0012499999400231538  0.9993840142457268  1.0000
  Cr  Cr13      1.0  0.008749999983849236  0.008749999680123487  0.0  1.0000
  Cr  Cr14      1.0  0.006249999849208763  0.0062499999999999995  0.9997946715163629  1.0000
  Cr  Cr15      1.0  0.008749999983849236  0.008749999680123487  0.999589343032726  1.0000
  Cr  Cr16      1.0  0.0012500000339280282  0.0062499999999999995  0.9993840142457268  1.0000
