data_image0
_chemical_formula_structural       COAl12As24Ca18
_chemical_formula_sum              "C1 O1 Al12 As24 Ca18"
_cell_length_a       16.58839478841147
_cell_length_b       7.963122047341798
_cell_length_c       102.32117462158203
_cell_angle_alpha    86.58380160424669
_cell_angle_beta     81.13765847816357
_cell_angle_gamma    90.32160614858711

_space_group_name_H-M_alt    "P 1"
_space_group_IT_number       1

loop_
  _space_group_symop_operation_xyz
  'x, y, z'

loop_
  _atom_site_type_symbol
  _atom_site_label
  _atom_site_symmetry_multiplicity
  _atom_site_fract_x
  _atom_site_fract_y
  _atom_site_fract_z
  _atom_site_occupancy
  C   C1        1.0  0.0011091217153868498  0.003931493497716567  0.9999405658284918  1.0000
  O   O1        1.0  0.0011091217153868498  0.003931493497716567  5.784384414273288e-05  1.0000
  Al  Al1       1.0  0.004852494877534508  0.0005548513539377948  0.9993501630263243  1.0000
  Al  Al2       1.0  0.001519161563901473  0.006110406767554725  0.9989991857243342  1.0000
  Al  Al3       1.0  0.008092470031009167  0.004787994415347421  0.9996926458004866  1.0000
  Al  Al4       1.0  0.004204412650288665  0.002217195610598988  0.9988452763327473  1.0000
  Al  Al5       1.0  0.000926564279573404  0.001227311244959365  0.999546732492847  1.0000
  Al  Al6       1.0  0.007537745850266133  0.006661639960313411  0.9991962537726544  1.0000
  Al  Al7       1.0  0.005116994112779841  0.007362893506497318  0.9994678310966031  1.0000
  Al  Al8       1.0  0.0017836606854912387  0.0029184486811023487  0.9991168536645794  1.0000
  Al  Al9       1.0  0.009766663811881291  0.003653807836286789  0.9997373260827201  1.0000
  Al  Al10      1.0  0.005765076340025683  0.002367215486515875  0.9989197858041517  1.0000
  Al  Al11      1.0  0.002416343265358115  0.0015850082490758003  0.9996382304087646  1.0000
  Al  Al12      1.0  0.009098409085380883  0.006811659822170386  0.9992707629642165  1.0000
  As  As1       1.0  0.007024981940948742  0.006521530938374805  0.9997974759909513  1.0000
  As  As2       1.0  0.0036307905038180702  0.0021467416207769196  0.999446480115279  1.0000
  As  As3       1.0  0.0002974573890822775  0.0077022970112544  0.9990955028084285  1.0000
  As  As4       1.0  0.004258685456585654  0.005961127541732054  0.9996775701047093  1.0000
  As  As5       1.0  0.0007470051912698442  0.0017571581210610156  0.9993092124139071  1.0000
  As  As6       1.0  0.007413671704880347  0.00731271385153246  0.9989582353011704  1.0000
  As  As7       1.0  0.005889150030789202  0.0017161419327248557  0.9991578042854258  1.0000
  As  As8       1.0  0.002555817058122868  0.007271697444758706  0.9988068266832006  1.0000
  As  As9       1.0  0.009222483685388937  0.0061605864136618374  0.9995087817133695  1.0000
  As  As10      1.0  0.0030053648318965425  0.001326558553686577  0.9990205365806555  1.0000
  As  As11      1.0  0.009625814559446146  0.0007414177359454962  0.9996969481048446  1.0000
  As  As12      1.0  0.006338698259185144  0.005771003261918898  0.9993715140132226  1.0000
  As  As13      1.0  0.005108703166487009  0.009623974608466378  0.9988569324838692  1.0000
  As  As14      1.0  0.0019104864321512125  0.008715990072153783  0.9995896068532247  1.0000
  As  As15      1.0  0.008442036366464477  0.004068418517649246  0.9992079100831011  1.0000
  As  As16      1.0  0.005627022559913541  0.00014000734331162727  0.9995460444681145  1.0000
  As  As17      1.0  0.002432769677128284  0.00567379718067288  0.9991789420144636  1.0000
  As  As18      1.0  0.009099436531705488  0.0012293524811577048  0.9988279647612242  1.0000
  As  As19      1.0  0.004860785369205071  0.004960437149445422  0.9989081295040385  1.0000
  As  As20      1.0  0.0014308622130249672  0.004123127714199764  0.9996367798276804  1.0000
  As  As21      1.0  0.008194119023804807  0.009404881747545052  0.9992591066401764  1.0000
  As  As22      1.0  0.004203385658586329  0.007799503082834228  0.9992880745237762  1.0000
  As  As23      1.0  0.000870052572264428  0.0033550587366347833  0.9989370973722767  1.0000
  As  As24      1.0  0.007441365020306558  0.002173210410785263  0.9996345174855087  1.0000
  Ca  Ca1       1.0  0.006405065836287335  0.0097645744157012  0.9997947409745085  1.0000
  Ca  Ca2       1.0  0.0029921946521175124  0.005613121853793697  0.9994624283884578  1.0000
  Ca  Ca3       1.0  0.009658861052072448  0.0011686774331252279  0.9991114508540175  1.0000
  Ca  Ca4       1.0  0.0075593672306872965  0.0011212969442937935  0.9990081596456076  1.0000
  Ca  Ca5       1.0  0.0038547372054891483  0.009474323184615894  0.9996561793918765  1.0000
  Ca  Ca6       1.0  0.0008927005465934433  0.00556574123901217  0.9993591371877288  1.0000
  Ca  Ca7       1.0  0.002778516730914128  0.004475847581977193  0.9998005198115149  1.0000
  Ca  Ca8       1.0  0.009076788159581989  0.0023520031732755693  0.9994588569443736  1.0000
  Ca  Ca9       1.0  0.00574345495960452  0.007907558561116815  0.9991078796396644  1.0000
  Ca  Ca10      1.0  0.004064160771513045  0.0036133074425181142  0.9991666041633558  1.0000
  Ca  Ca11      1.0  0.0007308275715355775  0.009168862830359361  0.9988156268586466  1.0000
  Ca  Ca12      1.0  0.007397493971490514  0.008057751792232538  0.999517581603263  1.0000
  Ca  Ca13      1.0  0.006977293883574568  0.002304622553221575  0.9993555657479273  1.0000
  Ca  Ca14      1.0  0.0036439606835971003  0.007860178409713411  0.9990045887323071  1.0000
  Ca  Ca15      1.0  0.0002333355891538707  0.007469754724469959  0.9997004614935605  1.0000
  Ca  Ca16      1.0  0.005970701082382152  0.004474459195176686  0.9996558987126549  1.0000
  Ca  Ca17      1.0  0.002571994564201567  0.009859993055314289  0.9993004126650599  1.0000
  Ca  Ca18      1.0  0.009238660964156504  0.005415548458901848  0.9989494351314346  1.0000
