data_image0
_chemical_formula_structural       COCa8Ga4Cu8Ca8Ga4Cu8
_chemical_formula_sum              "C1 O1 Ca16 Ga8 Cu16"
_cell_length_a       11.983850024068468
_cell_length_b       9.166231155395508
_cell_length_c       100.11969757080078
_cell_angle_alpha    90.0
_cell_angle_beta     68.95807043422657
_cell_angle_gamma    90.0

_space_group_name_H-M_alt    "P 1"
_space_group_IT_number       1

loop_
  _space_group_symop_operation_xyz
  'x, y, z'

loop_
  _atom_site_type_symbol
  _atom_site_label
  _atom_site_symmetry_multiplicity
  _atom_site_fract_x
  _atom_site_fract_y
  _atom_site_fract_z
  _atom_site_occupancy
  C   C1        1.0  0.006323572533614278  0.005000000325131692  0.9996946455925654  1.0000
  O   O1        1.0  0.006323572533614278  0.005000000325131692  0.9998145017747673  1.0000
  Ca  Ca1       1.0  0.006899473400399316  0.006960334713972547  0.9992977473241274  1.0000
  Ca  Ca2       1.0  0.0018125101159702395  0.006989366535521548  0.9995272407910211  1.0000
  Ca  Ca3       1.0  0.004558419660187387  0.007983751738804286  0.9996146208432136  1.0000
  Ca  Ca4       1.0  0.009322353522562827  0.007983611932177009  0.9994096040800561  1.0000
  Ca  Ca5       1.0  0.004558418994049481  0.002016248301837176  0.9996146208718419  1.0000
  Ca  Ca6       1.0  0.009322354854838639  0.002016388718086374  0.9994096034274653  1.0000
  Ca  Ca7       1.0  0.006899473400399316  0.0030396663427054494  0.9992977473241274  1.0000
  Ca  Ca8       1.0  0.0018125111151770985  0.0030106347243637564  0.9995272407480785  1.0000
  Ga  Ga1       1.0  0.006908628133640608  0.009999999837434154  0.9995081610040228  1.0000
  Ga  Ga2       1.0  0.0018994739199868827  3.0000001054359915e-10  0.999297747420864  1.0000
  Ga  Ga3       1.0  0.0044254608656450365  0.005000000731546305  0.999394215866512  1.0000
  Ga  Ga4       1.0  0.009401202268074869  0.004999999918717077  0.999600758020717  1.0000
  Cu  Cu1       1.0  0.00317640399701502  3.0000001054359915e-10  0.999461781773007  1.0000
  Cu  Cu2       1.0  0.008370646959316006  6.000000210871983e-10  0.9996402572335269  1.0000
  Cu  Cu3       1.0  0.005598797838507196  3.0000001054359915e-10  0.9993536460649527  1.0000
  Cu  Cu4       1.0  0.0006187829948763017  4.000000221328651e-10  0.9995560443842356  1.0000
  Cu  Cu5       1.0  0.0057506552985099315  0.004999999918717077  0.9995523759600607  1.0000
  Cu  Cu6       1.0  0.0007001499914745007  0.005000000325131692  0.9993492904031492  1.0000
  Cu  Cu7       1.0  0.0034207843483939192  0.005000000325131692  0.999650827874157  1.0000
  Cu  Cu8       1.0  0.008008531062959134  0.005000000325131692  0.9994661988045804  1.0000
  Ca  Ca9       1.0  0.006899473400399316  0.006960334713972547  0.9988679802845486  1.0000
  Ca  Ca10      1.0  0.0018994739199868827  0.006960334713972547  0.9990828637522411  1.0000
  Ca  Ca11      1.0  0.004399473826727576  0.008039666261422527  0.9991903056798606  1.0000
  Ca  Ca12      1.0  0.009399473640208962  0.008039666261422527  0.9989754221978538  1.0000
  Ca  Ca13      1.0  0.004399473826727576  0.001960334388840856  0.9991903056798606  1.0000
  Ca  Ca14      1.0  0.009399473640208962  0.001960334388840856  0.9989754221978538  1.0000
  Ca  Ca15      1.0  0.006899473400399316  0.0030396663427054494  0.9988679802845486  1.0000
  Ca  Ca16      1.0  0.0018994739199868827  0.0030396663427054494  0.9990828637522411  1.0000
  Ga  Ga5       1.0  0.006899473400399316  3.0000001054359915e-10  0.9990828639531715  1.0000
  Ga  Ga6       1.0  0.0018994739199868827  3.0000001054359915e-10  0.9988679800836183  1.0000
  Ga  Ga7       1.0  0.004399473826727576  0.005000000325131692  0.9989754220112378  1.0000
  Ga  Ga8       1.0  0.009399473640208962  0.005000000325131692  0.9991903055688097  1.0000
  Cu  Cu9       1.0  0.0032001498149479557  3.0000001054359915e-10  0.9990269649971016  1.0000
  Cu  Cu10      1.0  0.008200149628429342  3.0000001054359915e-10  0.9992418485546736  1.0000
  Cu  Cu11      1.0  0.005598797838507196  3.0000001054359915e-10  0.9989238790253739  1.0000
  Cu  Cu12      1.0  0.0005987976919568569  3.0000001054359915e-10  0.9991387625216949  1.0000
  Cu  Cu13      1.0  0.005700150054757601  0.005000000325131692  0.9991344069104069  1.0000
  Cu  Cu14      1.0  0.0007001499914745007  0.005000000325131692  0.9989195230659036  1.0000
  Cu  Cu15      1.0  0.0030987975986975502  0.005000000325131692  0.9992462044493143  1.0000
  Cu  Cu16      1.0  0.008098797412178936  0.005000000325131692  0.9990313209673076  1.0000
