data_image0
_chemical_formula_structural       COIn36Co12
_chemical_formula_sum              "C1 O1 In36 Co12"
_cell_length_a       9.840117454528809
_cell_length_b       10.01668927821747
_cell_length_c       33.411312103271484
_cell_angle_alpha    91.64461300117554
_cell_angle_beta     90.0
_cell_angle_gamma    60.581428443248356

_space_group_name_H-M_alt    "P 1"
_space_group_IT_number       1

loop_
  _space_group_symop_operation_xyz
  'x, y, z'

loop_
  _atom_site_type_symbol
  _atom_site_label
  _atom_site_symmetry_multiplicity
  _atom_site_fract_x
  _atom_site_fract_y
  _atom_site_fract_z
  _atom_site_occupancy
  C   C1        1.0  0.0016339450429411133  0.0011985948647061128  0.0004946450394741816  1.0000
  O   O1        1.0  0.0016339450429411133  0.0011985948647061128  0.000853804670178948  1.0000
  In  In1       1.0  7.816816840570224e-05  0.005299818470740094  0.9987591843244829  1.0000
  In  In2       1.0  0.003411501619348961  0.008633152265444262  0.9999759610360887  1.0000
  In  In3       1.0  0.006744835093656716  0.001966485316828752  0.9975424080643821  1.0000
  In  In4       1.0  0.00841150158906241  0.008633152265444262  0.9981507961262717  1.0000
  In  In5       1.0  0.00174483493465232  0.001966485316828752  0.9993675725282075  1.0000
  In  In6       1.0  0.005078168516701045  0.005299818470740094  0.9969340196376617  1.0000
  In  In7       1.0  0.003411501619348961  0.008633152265444262  0.9981507961262717  1.0000
  In  In8       1.0  0.006744835093656716  0.001966485316828752  0.9993675725282075  1.0000
  In  In9       1.0  7.816816840570224e-05  0.005299818470740094  0.9969340196376617  1.0000
  In  In10      1.0  0.005078168516701045  0.005299818470740094  0.9987591843244829  1.0000
  In  In11      1.0  0.00841150158906241  0.008633152265444262  0.9999759610360887  1.0000
  In  In12      1.0  0.00174483493465232  0.001966485316828752  0.9975424080643821  1.0000
  In  In13      1.0  0.006405779335287825  0.007644596046116196  0.998681038724966  1.0000
  In  In14      1.0  0.009739112969793786  0.000977928777104272  0.9998978155701367  1.0000
  In  In15      1.0  0.00307244626292646  0.004311262251412027  0.9974642624593518  1.0000
  In  In16      1.0  0.007433573098695796  0.008672388437387973  0.9972310523674179  1.0000
  In  In17      1.0  0.0007669060413971517  0.0020057219159676795  0.9984478287730294  1.0000
  In  In18      1.0  0.004100239599139214  0.005339055497074239  0.9996646054827973  1.0000
  In  In19      1.0  0.004350193937771863  0.008672388437387973  0.9972310523674179  1.0000
  In  In20      1.0  0.007683527198482009  0.0020057219159676795  0.9984478287730294  1.0000
  In  In21      1.0  0.0010168604382152814  0.005339055497074239  0.9996646054827973  1.0000
  In  In22      1.0  0.006056097220665266  0.0052605818716011665  0.997853763169844  1.0000
  In  In23      1.0  0.00938943050662424  0.008593915239110118  0.9990705398777742  1.0000
  In  In24      1.0  0.0027227635561243996  0.0019272485040922158  0.9966369869079055  1.0000
  In  In25      1.0  0.009139475624425412  0.0052605818716011665  0.997853763169844  1.0000
  In  In26      1.0  0.0024728097281212745  0.008593915239110118  0.9990705398777742  1.0000
  In  In27      1.0  0.005806143095630226  0.0019272485040922158  0.9966369869079055  1.0000
  In  In28      1.0  0.008711319884329782  0.003033514948032283  0.9969978424209948  1.0000
  In  In29      1.0  0.002044653230861857  0.006366848315541233  0.998214619128925  1.0000
  In  In30      1.0  0.0053779865168208305  0.009700181683050185  0.9994313953908635  1.0000
  In  In31      1.0  0.004778349652618668  0.0008994554720276126  0.9980869732599401  1.0000
  In  In32      1.0  0.008111682831778835  0.004232789053134172  0.999303749969708  1.0000
  In  In33      1.0  0.0014450163919085203  0.007566121993447906  0.9968701968543285  1.0000
  In  In34      1.0  0.0070838897997142335  0.006288375117263378  5.410663928113317e-05  1.0000
  In  In35      1.0  0.0004172231462463088  0.00962170848477233  0.9976205535275773  1.0000
  In  In36      1.0  0.0037505566205540642  0.0029550415361568193  0.9988373299295132  1.0000
  Co  Co1       1.0  0.00790805809539588  0.004640038525900087  0.9985183432427185  1.0000
  Co  Co2       1.0  0.0012413912283303458  0.007973372320604256  0.9997351195083328  1.0000
  Co  Co3       1.0  0.004574724702638101  0.0013067053719887454  0.9973015665366263  1.0000
  Co  Co4       1.0  0.00023450468349162364  0.00696648515449457  0.9975424079916267  1.0000
  Co  Co5       1.0  0.003567838010951023  0.00029981849957577125  0.9987591843960896  1.0000
  Co  Co6       1.0  0.006901171715541441  0.003633151786985619  0.9999759611033305  1.0000
  Co  Co7       1.0  0.0032551653178606475  0.00696648515449457  0.9975424079916267  1.0000
  Co  Co8       1.0  0.006588498645320047  0.00029981849957577125  0.9987591843960896  1.0000
  Co  Co9       1.0  0.009921831971328572  0.003633151786985619  0.9999759611033305  1.0000
  Co  Co10      1.0  0.008914944834310348  0.00262626504807115  0.9977832491443086  1.0000
  Co  Co11      1.0  0.0022482781808424233  0.005959598415580101  0.9990000258522387  1.0000
  Co  Co12      1.0  0.005581611253203787  0.00929293221028427  0.9965664727442106  1.0000
