data_image0
_chemical_formula_structural       COFe4Rh8Sn4
_chemical_formula_sum              "C1 O1 Fe4 Rh8 Sn4"
_cell_length_a       4.571696466135579
_cell_length_b       4.571696758270264
_cell_length_c       104.9406509399414
_cell_angle_alpha    90.0
_cell_angle_beta     90.0
_cell_angle_gamma    100.87765842178239

_space_group_name_H-M_alt    "P 1"
_space_group_IT_number       1

loop_
  _space_group_symop_operation_xyz
  'x, y, z'

loop_
  _atom_site_type_symbol
  _atom_site_label
  _atom_site_symmetry_multiplicity
  _atom_site_fract_x
  _atom_site_fract_y
  _atom_site_fract_z
  _atom_site_occupancy
  C   C1        1.0  0.007500000066381477  0.0024999999432639627  0.00016505056496355703  1.0000
  O   O1        1.0  0.007500000066381477  0.0024999999432639627  0.0002794005771520462  1.0000
  Fe  Fe1       1.0  0.002500000091274532  0.002499999886847135  0.9998612681246979  1.0000
  Fe  Fe2       1.0  0.007500000066381477  0.007499999621394481  0.9995838043740937  1.0000
  Fe  Fe3       1.0  0.002500000091274532  0.002499999886847135  0.9993063409074816  1.0000
  Fe  Fe4       1.0  0.007500000066381477  0.007499999621394481  0.9990288774408694  1.0000
  Rh  Rh1       1.0  0.007500000066381477  0.0024999999432639627  0.0  1.0000
  Rh  Rh2       1.0  0.002500000091274532  0.007499999463120222  0.9997225362493958  1.0000
  Rh  Rh3       1.0  0.002500000091274532  0.007499999463120222  0.0  1.0000
  Rh  Rh4       1.0  0.007500000066381477  0.0024999999432639627  0.9997225362493958  1.0000
  Rh  Rh5       1.0  0.007500000066381477  0.0024999999432639627  0.9994450724987916  1.0000
  Rh  Rh6       1.0  0.002500000091274532  0.007499999463120222  0.9991676090321794  1.0000
  Rh  Rh7       1.0  0.002500000091274532  0.007499999463120222  0.9994450724987916  1.0000
  Rh  Rh8       1.0  0.007500000066381477  0.0024999999432639627  0.9991676090321794  1.0000
  Sn  Sn1       1.0  0.002500000091274532  0.002499999886847135  0.9995838043740937  1.0000
  Sn  Sn2       1.0  0.007500000066381477  0.007499999621394481  0.9998612681246979  1.0000
  Sn  Sn3       1.0  0.002500000091274532  0.002499999886847135  0.9990288774408694  1.0000
  Sn  Sn4       1.0  0.007500000066381477  0.007499999621394481  0.9993063409074816  1.0000
