data_image0
_chemical_formula_structural       COMn2Se2Mn2Se2Mn2Se2Mn2Se2
_chemical_formula_sum              "C1 O1 Mn8 Se8"
_cell_length_a       7.2042741775512695
_cell_length_b       6.227077960968018
_cell_length_c       98.81710052490234
_cell_angle_alpha    90.0
_cell_angle_beta     90.0
_cell_angle_gamma    90.0

_space_group_name_H-M_alt    "P 1"
_space_group_IT_number       1

loop_
  _space_group_symop_operation_xyz
  'x, y, z'

loop_
  _atom_site_type_symbol
  _atom_site_label
  _atom_site_symmetry_multiplicity
  _atom_site_fract_x
  _atom_site_fract_y
  _atom_site_fract_z
  _atom_site_occupancy
  C   C1        1.0  0.0049997527667946  0.0013042462718991443  0.00015160363275454932  1.0000
  O   O1        1.0  0.0049997527667946  0.0013042462718991443  0.0002730403502351539  1.0000
  Mn  Mn1       1.0  2.470999999223502e-07  0.0011520112613846605  0.9996109036126614  1.0000
  Mn  Mn2       1.0  0.002500247140128397  0.0011520112613846605  0.9994286405669558  1.0000
  Se  Se1       1.0  2.470999999223502e-07  0.008655182181369065  0.9994286405669558  1.0000
  Se  Se2       1.0  0.002500247140128397  0.003648840269611396  0.9996109036126614  1.0000
  Mn  Mn3       1.0  0.009999752704743264  0.0013042462718991443  0.999976325126977  1.0000
  Mn  Mn4       1.0  0.00249988207143641  0.0013975559381678518  0.9998077368085658  1.0000
  Se  Se3       1.0  4.979000152536048e-07  0.008847989115506862  0.9998022439364338  1.0000
  Se  Se4       1.0  0.002499693849051306  0.0036464826037594087  0.0  1.0000
  Mn  Mn5       1.0  0.005000247109102729  0.0011520112613846605  0.9996109036126614  1.0000
  Mn  Mn6       1.0  0.007500247336624293  0.0011520112613846605  0.9994286405669558  1.0000
  Se  Se5       1.0  0.005000247109102729  0.008655182181369065  0.9994286405669558  1.0000
  Se  Se6       1.0  0.007500247336624293  0.003648840269611396  0.9996109036126614  1.0000
  Mn  Mn7       1.0  0.0049997527667946  0.0013042462718991443  0.999976325126977  1.0000
  Mn  Mn8       1.0  0.007499882267932307  0.0013975559381678518  0.9998077368085658  1.0000
  Se  Se7       1.0  0.005000497899918046  0.008847989115506862  0.9998022439364338  1.0000
  Se  Se8       1.0  0.007499694045547203  0.0036464826037594087  0.0  1.0000
