data_image0
_chemical_formula_structural       HAl8Co8Fe8Ti8Al8Co8Fe8Ti8
_chemical_formula_sum              "H1 Al16 Co16 Fe16 Ti16"
_cell_length_a       10.117575011088404
_cell_length_b       8.260965347290039
_cell_length_c       108.30451965332031
_cell_angle_alpha    90.0
_cell_angle_beta     84.94884751847268
_cell_angle_gamma    90.0

_space_group_name_H-M_alt    "P 1"
_space_group_IT_number       1

loop_
  _space_group_symop_operation_xyz
  'x, y, z'

loop_
  _atom_site_type_symbol
  _atom_site_label
  _atom_site_symmetry_multiplicity
  _atom_site_fract_x
  _atom_site_fract_y
  _atom_site_fract_z
  _atom_site_occupancy
  H   H1        1.0  0.0046709347155513056  9.999999876417857e-11  2.3299869387928593e-05  1.0000
  Al  Al1       1.0  0.003943229064844435  0.0  0.9991449543226617  1.0000
  Al  Al2       1.0  0.0032929668360278906  0.0  0.999811977472167  1.0000
  Al  Al3       1.0  0.00019322934345711865  0.0  0.9995870468378932  1.0000
  Al  Al4       1.0  0.0070682287691361135  0.0  0.9993660008837925  1.0000
  Al  Al5       1.0  0.006750704566474568  0.0025  0.9996944706626566  1.0000
  Al  Al6       1.0  0.003630729316196508  0.0025  0.9994765241338767  1.0000
  Al  Al7       1.0  0.0005057293346782778  0.0025  0.9992554775750262  1.0000
  Al  Al8       1.0  0.009806770225455595  0.0024999997745245176  0.9999193394845369  1.0000
  Co  Co1       1.0  0.004269454854494473  0.0025  0.9997000311921995  1.0000
  Co  Co2       1.0  0.0011307292940183837  0.0025  0.9994765241216764  1.0000
  Co  Co3       1.0  0.008005729123986099  0.0025  0.9992554776139072  1.0000
  Co  Co4       1.0  0.007380966193347254  0.0025  0.9999011716157751  1.0000
  Co  Co5       1.0  0.007693229005702771  0.0  0.9995870468778194  1.0000
  Co  Co6       1.0  0.0045682293014110914  0.0  0.9993660008670318  1.0000
  Co  Co7       1.0  0.0014432293198928618  0.0  0.9991449543081812  1.0000
  Co  Co8       1.0  0.0008205072387149661  0.01  0.999811849451863  1.0000
  Fe  Fe1       1.0  0.005780746896647623  0.01  0.9998102536059729  1.0000
  Fe  Fe2       1.0  0.002693229330981924  0.0  0.9995870468503786  1.0000
  Fe  Fe3       1.0  0.009568228976131939  0.0  0.9993660008944726  1.0000
  Fe  Fe4       1.0  0.0064432292718402595  0.0  0.9991449543333418  1.0000
  Fe  Fe5       1.0  0.006130729153556932  0.0025  0.9994765241475971  1.0000
  Fe  Fe6       1.0  0.0030057292644475515  0.0025  0.9992554775879865  1.0000
  Fe  Fe7       1.0  0.0022413524551857587  0.0025  0.999900767393714  1.0000
  Fe  Fe8       1.0  0.00923611008927458  0.0025  0.9996976951997726  1.0000
  Ti  Ti1       1.0  0.00830111881953049  0.01  0.9998123661310936  1.0000
  Ti  Ti2       1.0  0.005193229168342348  0.0  0.999587046864099  1.0000
  Ti  Ti3       1.0  0.0020682292792329675  0.0  0.9993660008548315  1.0000
  Ti  Ti4       1.0  0.008943228739565282  0.0  0.9991449543501025  1.0000
  Ti  Ti5       1.0  0.004822248663540328  0.0025  0.9999089179822548  1.0000
  Ti  Ti6       1.0  0.0017375567757019737  0.0025  0.9996999352676068  1.0000
  Ti  Ti7       1.0  0.008630729360552756  0.0025  0.9994765241582774  1.0000
  Ti  Ti8       1.0  0.0055057292866256755  0.0025  0.9992554776001868  1.0000
  Al  Al9       1.0  0.003943229064844435  0.005  0.9991449543226617  1.0000
  Al  Al10      1.0  0.0032929668360278906  0.005  0.999811977472167  1.0000
  Al  Al11      1.0  0.00019322934345711865  0.005  0.9995870468378932  1.0000
  Al  Al12      1.0  0.0070682287691361135  0.005  0.9993660008837925  1.0000
  Al  Al13      1.0  0.006750704566474568  0.007500000000000001  0.9996944706626566  1.0000
  Al  Al14      1.0  0.003630729316196508  0.007500000000000001  0.9994765241338767  1.0000
  Al  Al15      1.0  0.0005057293346782778  0.007500000000000001  0.9992554775750262  1.0000
  Al  Al16      1.0  0.009806770225455595  0.007499999549049035  0.9999193394845369  1.0000
  Co  Co9       1.0  0.004269454854494473  0.007500000000000001  0.9997000311921995  1.0000
  Co  Co10      1.0  0.0011307292940183837  0.007500000000000001  0.9994765241216764  1.0000
  Co  Co11      1.0  0.008005729123986099  0.007500000000000001  0.9992554776139072  1.0000
  Co  Co12      1.0  0.007380966193347254  0.007500000000000001  0.9999011716157751  1.0000
  Co  Co13      1.0  0.007693229005702771  0.005  0.9995870468778194  1.0000
  Co  Co14      1.0  0.0045682293014110914  0.005  0.9993660008670318  1.0000
  Co  Co15      1.0  0.0014432293198928618  0.005  0.9991449543081812  1.0000
  Co  Co16      1.0  0.0008205072387149661  0.005  0.999811849451863  1.0000
  Fe  Fe9       1.0  0.005780746896647623  0.005  0.9998102536059729  1.0000
  Fe  Fe10      1.0  0.002693229330981924  0.005  0.9995870468503786  1.0000
  Fe  Fe11      1.0  0.009568228976131939  0.005  0.9993660008944726  1.0000
  Fe  Fe12      1.0  0.0064432292718402595  0.005  0.9991449543333418  1.0000
  Fe  Fe13      1.0  0.006130729153556932  0.007500000000000001  0.9994765241475971  1.0000
  Fe  Fe14      1.0  0.0030057292644475515  0.007500000000000001  0.9992554775879865  1.0000
  Fe  Fe15      1.0  0.0022413524551857587  0.007500000000000001  0.999900767393714  1.0000
  Fe  Fe16      1.0  0.00923611008927458  0.007500000000000001  0.9996976951997726  1.0000
  Ti  Ti9       1.0  0.00830111881953049  0.005  0.9998123661310936  1.0000
  Ti  Ti10      1.0  0.005193229168342348  0.005  0.999587046864099  1.0000
  Ti  Ti11      1.0  0.0020682292792329675  0.005  0.9993660008548315  1.0000
  Ti  Ti12      1.0  0.008943228739565282  0.005  0.9991449543501025  1.0000
  Ti  Ti13      1.0  0.004822248663540328  0.007500000000000001  0.9999089179822548  1.0000
  Ti  Ti14      1.0  0.0017375567757019737  0.007500000000000001  0.9996999352676068  1.0000
  Ti  Ti15      1.0  0.008630729360552756  0.007500000000000001  0.9994765241582774  1.0000
  Ti  Ti16      1.0  0.0055057292866256755  0.007500000000000001  0.9992554776001868  1.0000
