data_image0
_chemical_formula_structural       HRh4Pb8Rh4Pb8
_chemical_formula_sum              "H1 Rh8 Pb16"
_cell_length_a       5.972017288208008
_cell_length_b       6.848553657531738
_cell_length_c       104.24276733398438
_cell_angle_alpha    90.0
_cell_angle_beta     90.0
_cell_angle_gamma    90.0

_space_group_name_H-M_alt    "P 1"
_space_group_IT_number       1

loop_
  _space_group_symop_operation_xyz
  'x, y, z'

loop_
  _atom_site_type_symbol
  _atom_site_label
  _atom_site_symmetry_multiplicity
  _atom_site_fract_x
  _atom_site_fract_y
  _atom_site_fract_z
  _atom_site_occupancy
  H   H1        1.0  0.00375081626787695  0.007186906351614744  0.00011819349036851105  1.0000
  Rh  Rh1       1.0  0.001249680241643437  0.000827980146443248  0.9994566698269555  1.0000
  Rh  Rh2       1.0  0.0062496803695205804  0.000827980146443248  0.9994566698269555  1.0000
  Rh  Rh3       1.0  0.006248660471328053  0.005827735710349858  0.9997730577946424  1.0000
  Rh  Rh4       1.0  0.001249184015947929  0.005828197526321748  0.9997730463589052  1.0000
  Pb  Pb1       1.0  0.008750135138069987  0.0026146913384359417  0.9998990201530991  1.0000
  Pb  Pb2       1.0  0.008749680394472218  0.004172019924270623  0.9995654631413198  1.0000
  Pb  Pb3       1.0  0.003750808158594685  0.004469036404231783  0.0  1.0000
  Pb  Pb4       1.0  0.0037496803445689424  0.0024839405753179574  0.9996763669209902  1.0000
  Pb  Pb5       1.0  0.0037496803445689424  0.007483940510043615  0.9995654631413198  1.0000
  Pb  Pb6       1.0  0.0037501977791565273  0.00904116384100131  0.9998990161505911  1.0000
  Pb  Pb7       1.0  0.008749680394472218  0.00917201985899628  0.9996763669209902  1.0000
  Pb  Pb8       1.0  0.008750816317780226  0.007186906351614744  2.858934307855755e-09  1.0000
  Rh  Rh5       1.0  0.001249680241643437  0.000827980146443248  0.9987996887242643  1.0000
  Rh  Rh6       1.0  0.0062496803695205804  0.000827980146443248  0.9987996887242643  1.0000
  Rh  Rh7       1.0  0.0062496803695205804  0.005827980489133545  0.9991281794185566  1.0000
  Rh  Rh8       1.0  0.001249680241643437  0.005827980489133545  0.9991281794185566  1.0000
  Pb  Pb9       1.0  0.008749680394472218  0.0024839405753179574  0.9992369727329209  1.0000
  Pb  Pb10      1.0  0.008749680394472218  0.004172019924270623  0.998908482324522  1.0000
  Pb  Pb11      1.0  0.0037496803445689424  0.004172019924270623  0.9993478765125913  1.0000
  Pb  Pb12      1.0  0.0037496803445689424  0.0024839405753179574  0.9990193858182989  1.0000
  Pb  Pb13      1.0  0.0037496803445689424  0.007483940510043615  0.998908482324522  1.0000
  Pb  Pb14      1.0  0.0037496803445689424  0.00917201985899628  0.9992369727329209  1.0000
  Pb  Pb15      1.0  0.008749680394472218  0.00917201985899628  0.9990193858182989  1.0000
  Pb  Pb16      1.0  0.008749680394472218  0.007483940510043615  0.9993478765125913  1.0000
