data_image0
_chemical_formula_structural       HPt8W4
_chemical_formula_sum              "H1 Pt8 W4"
_cell_length_a       4.845183739448067
_cell_length_b       4.866404979487987
_cell_length_c       37.76953887939453
_cell_angle_alpha    90.00882641887432
_cell_angle_beta     92.59323408789305
_cell_angle_gamma    80.36847471408247

_space_group_name_H-M_alt    "P 1"
_space_group_IT_number       1

loop_
  _space_group_symop_operation_xyz
  'x, y, z'

loop_
  _atom_site_type_symbol
  _atom_site_label
  _atom_site_symmetry_multiplicity
  _atom_site_fract_x
  _atom_site_fract_y
  _atom_site_fract_z
  _atom_site_occupancy
  H   H1        1.0  0.007742528437612778  0.009640253015495084  0.00045949999764940676  1.0000
  Pt  Pt1       1.0  0.0012121152157912325  0.0049522691916691125  0.999187962153435  1.0000
  Pt  Pt2       1.0  0.008712115141440848  0.00870226917613954  0.9986546214717359  1.0000
  Pt  Pt3       1.0  0.0037374187894893885  0.001184903554119044  0.9997134334631299  1.0000
  Pt  Pt4       1.0  0.006268243104029618  0.0073823797645846045  0.000214027596099671  1.0000
  Pt  Pt5       1.0  0.006282907787990216  0.005732572353644092  0.9995247865213096  1.0000
  Pt  Pt6       1.0  0.0038223900711853924  0.009517223084617336  0.9990023400522918  1.0000
  Pt  Pt7       1.0  0.008883853454576388  0.0019524937228847456  5.160206048489469e-05  1.0000
  Pt  Pt8       1.0  0.0013223898411265193  0.0032672236281523666  0.9984689991941195  1.0000
  W   W1        1.0  0.0011161463015111784  0.006756028629673519  0.9998669086477943  1.0000
  W   W2        1.0  0.008767252743057423  0.0003597466438249227  0.9993618215634221  1.0000
  W   W3        1.0  0.0037672525233772443  0.007859746394381167  0.9982951399234378  1.0000
  W   W4        1.0  0.006267252844016522  0.00410974640991074  0.9988284807446512  1.0000
