data_image0
_chemical_formula_structural       COIn6Sb6
_chemical_formula_sum              "C1 O1 In6 Sb6"
_cell_length_a       4.740214336637632
_cell_length_b       12.283928922744456
_cell_length_c       106.54827117919922
_cell_angle_alpha    81.76463875751676
_cell_angle_beta     105.03415188719327
_cell_angle_gamma    67.30115294509204

_space_group_name_H-M_alt    "P 1"
_space_group_IT_number       1

loop_
  _space_group_symop_operation_xyz
  'x, y, z'

loop_
  _atom_site_type_symbol
  _atom_site_label
  _atom_site_symmetry_multiplicity
  _atom_site_fract_x
  _atom_site_fract_y
  _atom_site_fract_z
  _atom_site_occupancy
  C   C1        1.0  0.005040885194362623  0.00464188402683008  0.0001257585067645095  1.0000
  O   O1        1.0  0.005040885194362623  0.00464188402683008  0.00023838318458652724  1.0000
  In  In1       1.0  0.0032625036440517277  0.006320797193208063  0.999682115793847  1.0000
  In  In2       1.0  0.003262503101555715  0.009654130526541396  0.9993962650585516  1.0000
  In  In3       1.0  0.003462732588105062  0.002876772766091924  0.9999788835890453  1.0000
  In  In4       1.0  0.0067374980010666465  0.008639711792069075  0.9998191196118228  1.0000
  In  In5       1.0  0.006595836583038625  0.00243190853213136  0.9995868321998654  1.0000
  In  In6       1.0  0.006595836854286631  0.005765241865464694  0.9993009814739608  1.0000
  Sb  Sb1       1.0  0.003710800907945933  0.007274844559188887  0.9999226859324721  1.0000
  Sb  Sb2       1.0  0.0032625028164851235  0.0009014248012019736  0.9996101887943646  1.0000
  Sb  Sb3       1.0  0.003262503082507171  0.004234757792817027  0.99932433835375  1.0000
  Sb  Sb4       1.0  0.006595837779380149  0.007012535456688712  0.9995149052238375  1.0000
  Sb  Sb5       1.0  0.006595836785032331  0.0003458691744551097  0.9992290547678745  1.0000
  Sb  Sb6       1.0  0.006637375577285951  0.0036644163151069004  0.9998006554632942  1.0000
