data_image0
_chemical_formula_structural       HRe4Os12Re4Os12
_chemical_formula_sum              "H1 Re8 Os24"
_cell_length_a       5.541821002960205
_cell_length_b       11.915173350381034
_cell_length_c       104.9850082397461
_cell_angle_alpha    68.46795128861834
_cell_angle_beta     90.0
_cell_angle_gamma    62.28290463377126

_space_group_name_H-M_alt    "P 1"
_space_group_IT_number       1

loop_
  _space_group_symop_operation_xyz
  'x, y, z'

loop_
  _atom_site_type_symbol
  _atom_site_label
  _atom_site_symmetry_multiplicity
  _atom_site_fract_x
  _atom_site_fract_y
  _atom_site_fract_z
  _atom_site_occupancy
  H   H1        1.0  0.0011722216228788438  0.006813516693222433  0.9997233784400293  1.0000
  Re  Re1       1.0  0.007139362537803952  0.0033464005695538683  0.9990416324079399  1.0000
  Re  Re2       1.0  0.007139362081514292  0.008346400864512141  0.9992499063429282  1.0000
  Re  Re3       1.0  0.0038060290760184414  0.0016797341926707676  0.9989027831166106  1.0000
  Re  Re4       1.0  0.003806029395934762  0.0066797337114230596  0.9991110568000595  1.0000
  Os  Os1       1.0  0.0038187116730769534  0.004176563344667348  0.9992153257778101  1.0000
  Os  Os2       1.0  0.003818712277104397  0.009176563251522631  0.9990070519479641  1.0000
  Os  Os3       1.0  0.008799687699927922  0.0016860754074298984  0.9989025189747889  1.0000
  Os  Os4       1.0  0.008799687631741252  0.006686075314285181  0.9991107926420715  1.0000
  Os  Os5       1.0  0.008799688524518108  0.004176563344667348  0.9992153257778101  1.0000
  Os  Os6       1.0  0.008799688456331436  0.009176563251522631  0.9990070519479641  1.0000
  Os  Os7       1.0  0.00712667994074544  0.0008495714175572875  0.9991456372438688  1.0000
  Os  Os8       1.0  0.0071266805447728855  0.00584957132441257  0.9989373634140228  1.0000
  Os  Os9       1.0  0.002145703913894471  0.0033400593547947377  0.9990418965497615  1.0000
  Os  Os10      1.0  0.0021457038457078016  0.00834005926165002  0.9992501705009162  1.0000
  Os  Os11      1.0  0.0021457037615184014  0.0008495714175572875  0.9991456372438688  1.0000
  Os  Os12      1.0  0.0021457036933317315  0.00584957132441257  0.9989373634140228  1.0000
  Re  Re5       1.0  0.007171957415710397  0.0033138103971462247  0.9994650300837674  1.0000
  Re  Re6       1.0  0.00704825630468965  0.008437502608052096  0.9996485377969496  1.0000
  Re  Re7       1.0  0.0038060290760184414  0.0016797341926707676  0.9993193306137391  1.0000
  Re  Re8       1.0  0.0038779669740503474  0.006607798822163932  0.9995279047941971  1.0000
  Os  Os13      1.0  0.0037542783727712013  0.004288976599612737  0.9996177045706305  1.0000
  Os  Os14      1.0  0.003846664867769938  0.00916375430042952  0.9994231868530112  1.0000
  Os  Os15      1.0  0.008799687699927922  0.0016860754074298984  0.9993190664719175  1.0000
  Os  Os16      1.0  0.008827778526181908  0.006657984419844524  0.9995282437028855  1.0000
  Os  Os17      1.0  0.00863930816312865  0.004288978540127689  0.9996177044897988  1.0000
  Os  Os18      1.0  0.00879735164721791  0.0091637550766355  0.9994231868206785  1.0000
  Os  Os19      1.0  0.007114414176718522  0.0008234369502909245  0.9995548892015154  1.0000
  Os  Os20      1.0  0.0071266805447728855  0.00584957132441257  0.9993539111950236  1.0000
  Os  Os21      1.0  0.00218832215134613  0.003297439436807792  0.9994614158908404  1.0000
  Os  Os22      1.0  0.0020204256861769783  0.008465287677336366  0.9996511718131079  1.0000
  Os  Os23      1.0  0.0022102454282666197  0.000823436368136439  0.9995548897935091  1.0000
  Os  Os24      1.0  0.0021457036933317315  0.00584957132441257  0.9993539111950236  1.0000
