data_image0
_chemical_formula_structural       HAs12Os6
_chemical_formula_sum              "H1 As12 Os6"
_cell_length_a       6.993553058217489
_cell_length_b       6.297316712232944
_cell_length_c       105.59037780761719
_cell_angle_alpha    111.85566214671753
_cell_angle_beta     118.94164033638799
_cell_angle_gamma    77.67764059904106

_space_group_name_H-M_alt    "P 1"
_space_group_IT_number       1

loop_
  _space_group_symop_operation_xyz
  'x, y, z'

loop_
  _atom_site_type_symbol
  _atom_site_label
  _atom_site_symmetry_multiplicity
  _atom_site_fract_x
  _atom_site_fract_y
  _atom_site_fract_z
  _atom_site_occupancy
  H   H1        1.0  0.008611758916754964  0.0034413046538142723  0.0004054749482342021  1.0000
  As  As1       1.0  0.0020322401632790906  0.0047978387096951685  0.9996762575253865  1.0000
  As  As2       1.0  0.005365573297605854  0.008131171652138064  0.9999571415338139  1.0000
  As  As3       1.0  0.00890109659897805  0.001427977235348867  0.00024529068065130675  1.0000
  As  As4       1.0  0.006024384546272039  0.009511831175429938  0.9997852849051954  1.0000
  As  As5       1.0  0.009502237571385037  0.0030531975868950912  7.925664811547913e-05  1.0000
  As  As6       1.0  0.002691051716547168  0.006178498219924433  0.9995044009062407  1.0000
  As  As7       1.0  0.0008921966854528218  0.007077925642382878  1.5173336996367905e-06  1.0000
  As  As8       1.0  0.00453052335390993  0.0005322810319228408  0.00028933465514431914  1.0000
  As  As9       1.0  0.007558862877955876  0.0037445922571472967  0.9997206332712858  1.0000
  As  As10      1.0  0.0004977617935200173  0.0005650779578612349  0.9997409087250979  1.0000
  As  As11      1.0  0.0038742613184799637  0.003845386830204947  1.715092436102475e-05  1.0000
  As  As12      1.0  0.007321148515227092  0.007073515680809566  0.00030818064438243285  1.0000
  Os  Os1       1.0  0.009028312360867602  0.007154834865815724  0.9997307712024924  1.0000
  Os  Os2       1.0  0.002361645787612183  0.00048816843628521665  1.1655381002809252e-05  1.0000
  Os  Os3       1.0  0.005795467695395145  0.0035882661265880743  0.00026541841133299437  1.0000
  Os  Os4       1.0  0.008808425737688273  0.007220923768592062  0.00014304167321803256  1.0000
  Os  Os5       1.0  0.002361645787612183  0.00048816843628521665  0.9995903292723927  1.0000
  Os  Os6       1.0  0.005694978921938947  0.003821501617745538  0.9998712132861267  1.0000
