data_image0
_chemical_formula_structural       HAl6Rh12Zn6
_chemical_formula_sum              "H1 Al6 Rh12 Zn6"
_cell_length_a       7.420952309361722
_cell_length_b       6.059182167053223
_cell_length_c       102.62969207763672
_cell_angle_alpha    90.0
_cell_angle_beta     85.65224684567842
_cell_angle_gamma    114.09484246428426

_space_group_name_H-M_alt    "P 1"
_space_group_IT_number       1

loop_
  _space_group_symop_operation_xyz
  'x, y, z'

loop_
  _atom_site_type_symbol
  _atom_site_label
  _atom_site_symmetry_multiplicity
  _atom_site_fract_x
  _atom_site_fract_y
  _atom_site_fract_z
  _atom_site_occupancy
  H   H1        1.0  0.005829722230933549  0.008121388320376876  3.95843409421418e-05  1.0000
  Al  Al1       1.0  0.00354166663355774  0.001979166710569242  0.9995299970214252  1.0000
  Al  Al2       1.0  0.005278269320268604  0.007847611450848353  0.9997969479959207  1.0000
  Al  Al3       1.0  0.0018749999337821456  0.006145833505163521  0.9992650499527653  1.0000
  Al  Al4       1.0  0.009375000220726182  0.004895833408088253  0.9996624702872984  1.0000
  Al  Al5       1.0  0.001083841287183621  0.0007511509021855601  0.9999194949354807  1.0000
  Al  Al6       1.0  0.007708333245042861  0.00906250016079388  0.999397523220151  1.0000
  Rh  Rh1       1.0  0.004791666313504777  0.00010416651672780682  0.9993312865879705  1.0000
  Rh  Rh2       1.0  0.006458333289188097  0.005937500072199375  0.999596233655118  1.0000
  Rh  Rh3       1.0  0.008216616529156022  0.001797208477883233  0.9998590694791317  1.0000
  Rh  Rh4       1.0  0.0038687751089274878  0.009631842317875734  0.9999787926953166  1.0000
  Rh  Rh5       1.0  0.0006249999779273819  0.00802083333049459  0.9994637600973454  1.0000
  Rh  Rh6       1.0  0.0023268520864592576  0.003896944848593685  0.9997268805746709  1.0000
  Rh  Rh7       1.0  0.003868956104396209  0.00465863257456628  0.9999788335188808  1.0000
  Rh  Rh8       1.0  0.0006249999779273819  0.0030208334165690172  0.9994637600973454  1.0000
  Rh  Rh9       1.0  0.0023260047738305344  0.008847011094971739  0.9997268172688052  1.0000
  Rh  Rh10      1.0  0.004791666313504777  0.005104166584357715  0.9993312865879705  1.0000
  Rh  Rh11      1.0  0.006458333289188097  0.0009375000045694673  0.999596233655118  1.0000
  Rh  Rh12      1.0  0.008217448666859776  0.0068363531886199225  0.999858984770841  1.0000
  Zn  Zn1       1.0  0.00354166663355774  0.006979166855051318  0.9995299970214252  1.0000
  Zn  Zn2       1.0  0.0053023632384111875  0.002860185759507335  0.9997968408945619  1.0000
  Zn  Zn3       1.0  0.0018749999337821456  0.001145833264616235  0.9992650499527653  1.0000
  Zn  Zn4       1.0  0.009375000220726182  0.009895833648635539  0.9996624702872984  1.0000
  Zn  Zn5       1.0  0.0009231586971183332  0.005671637449486953  0.9999416547168943  1.0000
  Zn  Zn6       1.0  0.007708333245042861  0.004062499977885718  0.999397523220151  1.0000
