data_image0
_chemical_formula_structural       CORh16Sn16
_chemical_formula_sum              "C1 O1 Rh16 Sn16"
_cell_length_a       7.398863792419434
_cell_length_b       9.061720591980984
_cell_length_c       104.30712127685547
_cell_angle_alpha    95.0511524543299
_cell_angle_beta     90.0
_cell_angle_gamma    90.0

_space_group_name_H-M_alt    "P 1"
_space_group_IT_number       1

loop_
  _space_group_symop_operation_xyz
  'x, y, z'

loop_
  _atom_site_type_symbol
  _atom_site_label
  _atom_site_symmetry_multiplicity
  _atom_site_fract_x
  _atom_site_fract_y
  _atom_site_fract_z
  _atom_site_occupancy
  C   C1        1.0  0.00968027581467572  0.006341648818457724  7.39769175940145e-05  1.0000
  O   O1        1.0  0.00968027581467572  0.006341648818457724  0.0001890220283381237  1.0000
  Rh  Rh1       1.0  3.293389939293799e-05  0.005366621785975322  0.9995639144173024  1.0000
  Rh  Rh2       1.0  0.005032285664873011  0.00224300253053301  0.9997627455874194  1.0000
  Rh  Rh3       1.0  0.009967065511439341  0.009144930053897505  0.9999542148563304  1.0000
  Rh  Rh4       1.0  0.005032933662828999  0.008491621951057168  0.9993583488874308  1.0000
  Rh  Rh5       1.0  0.008968160802194201  0.00862471836376791  0.9994896773362782  1.0000
  Rh  Rh6       1.0  0.003968160490027353  0.005499718611390679  0.9996952425835897  1.0000
  Rh  Rh7       1.0  0.009007554244367076  0.002349466082719792  0.9998928908848094  1.0000
  Rh  Rh8       1.0  0.003968160490027353  0.00174971857837431  0.9992841116124977  1.0000
  Rh  Rh9       1.0  0.0075329334412912365  0.0037231556613775674  0.9993431184731556  1.0000
  Rh  Rh10      1.0  0.002532933884366762  0.0005981555994718754  0.9995486840038166  1.0000
  Rh  Rh11      1.0  0.007491536089355477  0.007487078284558207  0.9997508259033675  1.0000
  Rh  Rh12      1.0  0.00272538399059855  0.0042784352752910145  0.9999479070061034  1.0000
  Rh  Rh13      1.0  0.003597707057168408  0.005187218677423417  0.9993868944759664  1.0000
  Rh  Rh14      1.0  0.008597706362345425  0.002062218718693879  0.9995924600074164  1.0000
  Rh  Rh15      1.0  0.0036927963516291194  0.008977040165971438  0.9998095647192952  1.0000
  Rh  Rh16      1.0  0.008346236833889922  0.005724189889236156  0.9999793782799773  1.0000
  Sn  Sn1       1.0  3.293389939293799e-05  0.006125951640712807  0.9993141671692215  1.0000
  Sn  Sn2       1.0  0.005032933662828999  0.0030009518883355756  0.9995197327022499  1.0000
  Sn  Sn3       1.0  3.293389939293799e-05  0.009875951261024562  0.9997252984228737  1.0000
  Sn  Sn4       1.0  0.005043611279497713  0.006724822354105155  0.9999394653231263  1.0000
  Sn  Sn5       1.0  0.0009308408819842076  0.002888713566832844  0.9994089854216474  1.0000
  Sn  Sn6       1.0  0.005930840816529869  0.00976371293952183  0.999614550856554  1.0000
  Sn  Sn7       1.0  0.0010143145487490062  0.006621218225838727  0.9998351752896029  1.0000
  Sn  Sn8       1.0  0.006065310714043116  0.0035478800116735317  2.7137558308778076e-05  1.0000
  Sn  Sn9       1.0  0.002532933884366762  0.007560835202412001  0.9995486838235612  1.0000
  Sn  Sn10      1.0  0.007500031055566376  0.004439048355457294  0.999751305046137  1.0000
  Sn  Sn11      1.0  0.002327011009443986  0.0013659921217198368  0.9999738211952411  1.0000
  Sn  Sn12      1.0  0.0075329334412912365  0.0006858358297230153  0.9993431183886545  1.0000
  Sn  Sn13      1.0  0.006635026791085282  0.006326213665881951  0.9995117679993989  1.0000
  Sn  Sn14      1.0  0.0016350268565396208  0.0032012137071524126  0.999717333816566  1.0000
  Sn  Sn15      1.0  0.006655116238205652  0.00012404794142377096  0.9999328470361835  1.0000
  Sn  Sn16      1.0  0.0016350268565396208  0.009451213005554567  0.9993062024632137  1.0000
