data_image0
_chemical_formula_structural       HSb8Ir4Sb8Ir4
_chemical_formula_sum              "H1 Sb16 Ir8"
_cell_length_a       6.671525955200195
_cell_length_b       6.827410754977495
_cell_length_c       110.35456085205078
_cell_angle_alpha    114.92775062134615
_cell_angle_beta     90.0
_cell_angle_gamma    90.0

_space_group_name_H-M_alt    "P 1"
_space_group_IT_number       1

loop_
  _space_group_symop_operation_xyz
  'x, y, z'

loop_
  _atom_site_type_symbol
  _atom_site_label
  _atom_site_symmetry_multiplicity
  _atom_site_fract_x
  _atom_site_fract_y
  _atom_site_fract_z
  _atom_site_occupancy
  H   H1        1.0  0.004347058482690268  0.006480178290346098  0.00017239101104216882  1.0000
  Sb  Sb1       1.0  0.001349706120493633  0.0038674791455866274  0.9991019817592944  1.0000
  Sb  Sb2       1.0  0.0063497059473938055  0.0012907004951174662  0.999529739724469  1.0000
  Sb  Sb3       1.0  0.008650293672903347  0.006290700416897652  0.9995297398304532  1.0000
  Sb  Sb4       1.0  0.00365029398559981  0.008867479518634973  0.9991019818770458  1.0000
  Sb  Sb5       1.0  0.0063744564308046685  0.0068661106430009545  0.9992211531486347  1.0000
  Sb  Sb6       1.0  0.0013744567435011311  0.00829206929253167  0.9994105682888046  1.0000
  Sb  Sb7       1.0  0.0036255432229956768  0.0032920692203287647  0.9994105687190175  1.0000
  Sb  Sb8       1.0  0.008625543189492485  0.0018661105707980488  0.999221153038728  1.0000
  Ir  Ir1       1.0  0.0049901826935337375  0.002989793861763359  0.9991767147120838  1.0000
  Ir  Ir2       1.0  0.009990182939223815  0.0021683859293634544  0.9994550070456617  1.0000
  Ir  Ir3       1.0  0.005009817239459878  0.0071683863024118  0.9994550071634131  1.0000
  Ir  Ir4       1.0  9.81719989295652e-06  0.007989793633120825  0.999176714544086  1.0000
  Sb  Sb9       1.0  0.001349706120493633  0.0038674791455866274  0.999711450116781  1.0000
  Sb  Sb10      1.0  0.006413114647781564  0.0011325209266162784  0.00012985695723404647  1.0000
  Sb  Sb11      1.0  0.008586881063809806  0.006132526113191667  0.0001298566603825907  1.0000
  Sb  Sb12      1.0  0.00365029398559981  0.008867479518634973  0.9997114502345323  1.0000
  Sb  Sb13      1.0  0.0063744564308046685  0.0068661106430009545  0.9998306212360616  1.0000
  Sb  Sb14      1.0  0.001397412572570595  0.008429378159887964  3.258765880644234e-05  1.0000
  Sb  Sb15      1.0  0.0036025823684473477  0.003429371469085373  3.2587376314519264e-05  1.0000
  Sb  Sb16      1.0  0.008625543189492485  0.0018661105707980488  0.9998306216662743  1.0000
  Ir  Ir5       1.0  0.0049901826935337375  0.002989793861763359  0.9997861827995107  1.0000
  Ir  Ir6       1.0  0.009908467536103398  0.002172809861561422  5.665775629100267e-05  1.0000
  Ir  Ir7       1.0  0.005091534317739918  0.007172810535455208  5.66573417677621e-05  1.0000
  Ir  Ir8       1.0  9.81719989295652e-06  0.007989793633120825  0.9997861829015725  1.0000
