data_image0
_chemical_formula_structural       COGa18Pt12
_chemical_formula_sum              "C1 O1 Ga18 Pt12"
_cell_length_a       6.880069299327354
_cell_length_b       9.195152796100306
_cell_length_c       98.78993225097656
_cell_angle_alpha    90.17661197205945
_cell_angle_beta     95.15338913149365
_cell_angle_gamma    90.73905939970854

_space_group_name_H-M_alt    "P 1"
_space_group_IT_number       1

loop_
  _space_group_symop_operation_xyz
  'x, y, z'

loop_
  _atom_site_type_symbol
  _atom_site_label
  _atom_site_symmetry_multiplicity
  _atom_site_fract_x
  _atom_site_fract_y
  _atom_site_fract_z
  _atom_site_occupancy
  C   C1        1.0  0.007639943079384682  0.0016925021877110468  4.8277551788928296e-05  1.0000
  O   O1        1.0  0.007639943079384682  0.0016925021877110468  0.0001697476656483944  1.0000
  Ga  Ga1       1.0  0.005093116340818616  3.849879716105911e-05  0.9995899114471309  1.0000
  Ga  Ga2       1.0  0.0027121641014862144  0.006705165158132615  0.9993123631181063  1.0000
  Ga  Ga3       1.0  0.008902640264617017  0.003371831976064127  0.9994511372979737  1.0000
  Ga  Ga4       1.0  0.008759645144032194  0.006782162746123894  0.9994479317888086  1.0000
  Ga  Ga5       1.0  0.0049501212201776  0.0034488295640554066  0.9995867059379645  1.0000
  Ga  Ga6       1.0  0.002569168543381858  0.00011549639464859681  0.9993091577419028  1.0000
  Ga  Ga7       1.0  0.009045636094775515  0.009961500752209824  0.9994543429775566  1.0000
  Ga  Ga8       1.0  0.00523611217092092  0.006628167570141336  0.9995931171267125  1.0000
  Ga  Ga9       1.0  0.002855159493900406  0.003294834388072848  0.9993155689306457  1.0000
  Ga  Ga10      1.0  0.0028232233595161735  0.00022418949248863724  2.967862243422178e-05  1.0000
  Ga  Ga11      1.0  0.0011229564584038767  0.006774695800128971  0.9997226378573734  1.0000
  Ga  Ga12      1.0  0.007315050701670569  0.003452801886945104  0.9998820038096172  1.0000
  Ga  Ga13      1.0  0.007296779350225698  0.00676989692290482  0.9998981764943435  1.0000
  Ga  Ga14      1.0  0.0028173610570592523  0.0031437303289792566  7.153578747565014e-06  1.0000
  Ga  Ga15      1.0  0.0011967325395843915  0.00014847349421281012  0.9997317719109268  1.0000
  Ga  Ga16      1.0  0.007510464720424334  0.009916156953838568  0.9998624719873862  1.0000
  Ga  Ga17      1.0  0.003505914544777966  0.006539300418803088  0.9999904726216136  1.0000
  Ga  Ga18      1.0  0.0014103142829009134  0.003300717307513582  0.999730973022296  1.0000
  Pt  Pt1       1.0  0.005801114853232433  0.00837521738054857  0.9993816093350465  1.0000
  Pt  Pt2       1.0  0.0019915907934631542  0.005041884198480084  0.9995203834833521  1.0000
  Pt  Pt3       1.0  0.009610638067513352  0.001708551016411596  0.999242835015473  1.0000
  Pt  Pt4       1.0  0.0020041660267605104  0.008368446117785146  0.9995206653989068  1.0000
  Pt  Pt5       1.0  0.009623213436725394  0.005035112935716658  0.9992431169318777  1.0000
  Pt  Pt6       1.0  0.005813690056529535  0.0017017797536481708  0.9993818913861082  1.0000
  Pt  Pt7       1.0  0.004406437758169017  0.008357731704637945  0.9997961530734987  1.0000
  Pt  Pt8       1.0  0.00037678634034399327  0.005023625045988835  0.999928033579792  1.0000
  Pt  Pt9       1.0  0.008182067092508643  0.001708551016411596  0.9996591576640699  1.0000
  Pt  Pt10      1.0  0.00045472124306259474  0.008335486858525119  0.9999265818746574  1.0000
  Pt  Pt11      1.0  0.008194642461720683  0.005035112935716658  0.9996594395804747  1.0000
  Pt  Pt12      1.0  0.004481183914847142  0.0017193772574981636  0.9998172924052826  1.0000
