data_image0
_chemical_formula_structural       HPt6V3Pt6V3
_chemical_formula_sum              "H1 Pt12 V6"
_cell_length_a       4.841608260446714
_cell_length_b       7.672976970672607
_cell_length_c       98.77214813232422
_cell_angle_alpha    90.0
_cell_angle_beta     89.1459216181284
_cell_angle_gamma    113.34082377990902

_space_group_name_H-M_alt    "P 1"
_space_group_IT_number       1

loop_
  _space_group_symop_operation_xyz
  'x, y, z'

loop_
  _atom_site_type_symbol
  _atom_site_label
  _atom_site_symmetry_multiplicity
  _atom_site_fract_x
  _atom_site_fract_y
  _atom_site_fract_z
  _atom_site_occupancy
  H   H1        1.0  0.0008774596407490789  0.0002193648971154848  0.9999993588770677  1.0000
  Pt  Pt1       1.0  0.004764627014470091  0.003691156908980024  0.9999645530195849  1.0000
  Pt  Pt2       1.0  0.00893499862789352  0.0022337497136509996  4.946142549047128e-05  1.0000
  Pt  Pt3       1.0  0.0029464453326735994  0.0032366114885309014  0.9996997365762913  1.0000
  Pt  Pt4       1.0  0.0071168167365664985  0.0017792042170040388  0.999784644680622  1.0000
  Pt  Pt5       1.0  0.0011282636508771074  0.0027820658253278696  0.9994349201329977  1.0000
  Pt  Pt6       1.0  0.005298634845239477  0.001324658695357081  0.9995198282374816  1.0000
  V   V1        1.0  0.0009407220934300452  0.0002351805852445062  0.9998745988175084  1.0000
  V   V2        1.0  0.009122540185340582  0.004780635201697647  0.9996097824392518  1.0000
  V   V3        1.0  0.00730435829401356  0.004326089486111984  0.9993449659961113  1.0000
  Pt  Pt7       1.0  0.004764627014470091  0.00869115673419721  0.9999645530195849  1.0000
  Pt  Pt8       1.0  0.00893499862789352  0.007233749967698383  4.946142549047128e-05  1.0000
  Pt  Pt9       1.0  0.0029464453326735994  0.008236611313748088  0.9996997365762913  1.0000
  Pt  Pt10      1.0  0.0071168167365664985  0.006779204494866627  0.999784644680622  1.0000
  Pt  Pt11      1.0  0.0011282636508771074  0.007782065893298965  0.9994349201329977  1.0000
  Pt  Pt12      1.0  0.005298634845239477  0.006324658536527055  0.9995198282374816  1.0000
  V   V4        1.0  0.0009407220934300452  0.005235180834082515  0.9998745988175084  1.0000
  V   V5        1.0  0.009122540185340582  0.009780635026914833  0.9996097824392518  1.0000
  V   V6        1.0  0.00730435829401356  0.009326089554083079  0.9993449659961113  1.0000
