data_image0
_chemical_formula_structural       COV5Pt5V5Pt5
_chemical_formula_sum              "C1 O1 V10 Pt10"
_cell_length_a       6.060091722948412
_cell_length_b       4.770865360815914
_cell_length_c       102.92141723632812
_cell_angle_alpha    72.04130751443793
_cell_angle_beta     77.23851115034566
_cell_angle_gamma    75.2829478000451

_space_group_name_H-M_alt    "P 1"
_space_group_IT_number       1

loop_
  _space_group_symop_operation_xyz
  'x, y, z'

loop_
  _atom_site_type_symbol
  _atom_site_label
  _atom_site_symmetry_multiplicity
  _atom_site_fract_x
  _atom_site_fract_y
  _atom_site_fract_z
  _atom_site_occupancy
  C   C1        1.0  0.003530854432246897  0.007054299413126559  0.999885465549082  1.0000
  O   O1        1.0  0.003530854432246897  0.007054299413126559  2.0595937514759364e-06  1.0000
  V   V1        1.0  0.004038726037635511  0.008039741669622983  0.9991769316548262  1.0000
  V   V2        1.0  0.008038726254509061  0.006039742095241354  0.9992835552750298  1.0000
  V   V3        1.0  3.8726000007291485e-05  3.974229862493496e-05  0.9990703088859099  1.0000
  V   V4        1.0  0.00203872586773731  0.004039742101944005  0.9988570624082576  1.0000
  V   V5        1.0  0.006038725801697046  0.002039742318104516  0.9989636857455706  1.0000
  Pt  Pt1       1.0  0.004038726037635511  0.008039741669622983  0.9989103739372166  1.0000
  Pt  Pt2       1.0  0.008038726254509061  0.006039742095241354  0.9990169972678563  1.0000
  Pt  Pt3       1.0  3.8726000007291485e-05  3.974229862493496e-05  0.9993368666035195  1.0000
  Pt  Pt4       1.0  0.00203872586773731  0.004039742101944005  0.9991236204154311  1.0000
  Pt  Pt5       1.0  0.006038725801697046  0.002039742318104516  0.9992302434631802  1.0000
  V   V6        1.0  0.003994334379592087  0.008095841187053523  0.9997063948027965  1.0000
  V   V7        1.0  0.008125567678241477  0.006033495642954795  0.9997999500360569  1.0000
  V   V8        1.0  0.009961273954353285  0.009960257432221717  0.9996085232144704  1.0000
  V   V9        1.0  0.00203872586773731  0.004039742101944005  0.9993901784226046  1.0000
  V   V10       1.0  0.006038725801697046  0.002039742318104516  0.9994968014703538  1.0000
  Pt  Pt6       1.0  0.004038726037635511  0.008039741669622983  0.9994434896619998  1.0000
  Pt  Pt7       1.0  0.008038726254509061  0.006039742095241354  0.9995501127030756  1.0000
  Pt  Pt8       1.0  0.00012211596368804663  0.009579161424299504  0.999861501318482  1.0000
  Pt  Pt9       1.0  0.002060668296039279  0.00401236009488488  0.999657472487853  1.0000
  Pt  Pt10      1.0  0.006031636966936861  0.0017446554673917077  0.9997614389574941  1.0000
