data_image0
_chemical_formula_structural       COSi16Pd16
_chemical_formula_sum              "C1 O1 Si16 Pd16"
_cell_length_a       6.645794110905082
_cell_length_b       9.344154296430434
_cell_length_c       33.625465393066406
_cell_angle_alpha    99.57543060024815
_cell_angle_beta     109.09854466120184
_cell_angle_gamma    66.87097284965655

_space_group_name_H-M_alt    "P 1"
_space_group_IT_number       1

loop_
  _space_group_symop_operation_xyz
  'x, y, z'

loop_
  _atom_site_type_symbol
  _atom_site_label
  _atom_site_symmetry_multiplicity
  _atom_site_fract_x
  _atom_site_fract_y
  _atom_site_fract_z
  _atom_site_occupancy
  C   C1        1.0  0.00693102067130828  0.006881606623129925  0.0007556443410660207  1.0000
  O   O1        1.0  0.00693102067130828  0.006881606623129925  0.0011125170051989694  1.0000
  Si  Si1       1.0  0.0015891490542080298  0.005547405048614332  0.9994399575126913  1.0000
  Si  Si2       1.0  0.00908914905420803  0.003047405048614332  0.9987638605450245  1.0000
  Si  Si3       1.0  0.00421087643447443  0.007826609750915772  0.000186067378204159  1.0000
  Si  Si4       1.0  0.006589148867423404  0.0005474052655806088  0.9980877630878422  1.0000
  Si  Si5       1.0  0.003410851170914538  0.009452594083520562  0.9981872628134956  1.0000
  Si  Si6       1.0  0.0010685364970907008  0.006917454225322777  0.00020941670380543144  1.0000
  Si  Si7       1.0  0.005910850797345286  0.0019525945174531146  0.9988633602024886  1.0000
  Si  Si8       1.0  0.008410851461729206  0.004452594517453115  0.9995394572574342  1.0000
  Si  Si9       1.0  0.0060705136219009045  0.008566040368919043  0.9992996983356427  1.0000
  Si  Si10      1.0  0.003570513550716913  0.006066040368919043  0.9986236013190575  1.0000
  Si  Si11      1.0  0.008492464316554815  0.0011094612874883011  1.3412783095973925e-05  1.0000
  Si  Si12      1.0  0.00032572321009969723  0.003044595986228022  0.0004964194632031802  1.0000
  Si  Si13      1.0  0.008929485850004458  0.006433959197148404  0.9983275220062098  1.0000
  Si  Si14      1.0  0.00620304977745933  0.003959513485235185  0.0003717600593141622  1.0000
  Si  Si15      1.0  0.0014294866744056546  0.00893395876321585  0.999003619228705  1.0000
  Si  Si16      1.0  0.003929486185235768  0.0014339594141146805  0.9996797163986763  1.0000
  Pd  Pd1       1.0  0.007201356402417296  0.009069797877687953  0.9987214031423318  1.0000
  Pd  Pd2       1.0  0.004701356100032034  0.006569798311620505  0.9980453059092789  1.0000
  Pd  Pd3       1.0  0.009701355855447092  0.0015697986370699208  0.9993975005351556  1.0000
  Pd  Pd4       1.0  0.0022082387054214708  0.003984251980121029  6.570648358057536e-05  1.0000
  Pd  Pd5       1.0  0.007798643531890606  0.005930200820514387  0.9989058174108806  1.0000
  Pd  Pd6       1.0  0.00529864334510598  0.0034302010374806643  0.9982297201752738  1.0000
  Pd  Pd7       1.0  0.00029864359728930045  0.008430201254446941  0.9995819146244109  1.0000
  Pd  Pd8       1.0  0.0026806216770885564  0.000713078761882809  0.00020631077635366158  1.0000
  Pd  Pd9       1.0  0.002862108861286384  0.0009090461745894651  0.9989000960798069  1.0000
  Pd  Pd10      1.0  0.0003621091694569414  0.008409045306724358  0.998223999109677  1.0000
  Pd  Pd11      1.0  0.005362108751471047  0.0034090459576231885  0.999576193517809  1.0000
  Pd  Pd12      1.0  0.00794161883658056  0.005760977972889283  0.00023397748053627628  1.0000
  Pd  Pd13      1.0  0.002137891215682904  0.004090953391477982  0.9987271241948169  1.0000
  Pd  Pd14      1.0  0.009637891042281953  0.0015909537169273966  0.9980510270094054  1.0000
  Pd  Pd15      1.0  0.004637891286866896  0.006590953391477981  0.9994032216545532  1.0000
  Pd  Pd16      1.0  0.007094903721566925  0.008989857954782146  5.2167949535790616e-05  1.0000
