data_image0
_chemical_formula_structural       HAl18Os12
_chemical_formula_sum              "H1 Al18 Os12"
_cell_length_a       7.025618439148188
_cell_length_b       7.499242692029576
_cell_length_c       99.64111328125
_cell_angle_alpha    93.81964301249
_cell_angle_beta     95.44033207709143
_cell_angle_gamma    106.32306795559376

_space_group_name_H-M_alt    "P 1"
_space_group_IT_number       1

loop_
  _space_group_symop_operation_xyz
  'x, y, z'

loop_
  _atom_site_type_symbol
  _atom_site_label
  _atom_site_symmetry_multiplicity
  _atom_site_fract_x
  _atom_site_fract_y
  _atom_site_fract_z
  _atom_site_occupancy
  H   H1        1.0  0.00040252446189657505  0.002191910864522581  0.0001409023511582821  1.0000
  Al  Al1       1.0  0.001978427925728878  7.972199776863952e-06  0.9997280021731488  1.0000
  Al  Al2       1.0  0.004251408089037888  0.009992027974823584  5.038737887640645e-06  1.0000
  Al  Al3       1.0  0.0081003755420935  0.00991723185715079  0.9998485346262526  1.0000
  Al  Al4       1.0  0.009070179707650705  0.005984600115458035  0.00011553451332787956  1.0000
  Al  Al5       1.0  0.0032261168436166087  0.006166817937796859  1.341087183015216e-06  1.0000
  Al  Al6       1.0  0.006903153297299759  0.006060798952895545  0.9998440455357166  1.0000
  Al  Al7       1.0  0.009443347895283054  0.004052226994305721  0.9998892477210475  1.0000
  Al  Al8       1.0  0.003193368983909008  0.0039331664083290625  0.99975580364902  1.0000
  Al  Al9       1.0  0.005445908571667671  0.0038047837431151583  4.751589791116505e-05  1.0000
  Al  Al10      1.0  0.003406999249293532  7.972199776863952e-06  0.9993030325271668  1.0000
  Al  Al11      1.0  0.005787951810329995  7.972199776863952e-06  0.9995863458804531  1.0000
  Al  Al12      1.0  0.009597475162288052  7.972199776863952e-06  0.9994446892851002  1.0000
  Al  Al13      1.0  0.0007634867037342386  0.006082777496394724  0.9997002008940964  1.0000
  Al  Al14      1.0  0.004573010322013826  0.006082777496394724  0.9995585443005237  1.0000
  Al  Al15      1.0  0.008382534206614943  0.006082777496394724  0.9994168877087315  1.0000
  Al  Al16      1.0  0.0008124165560333097  0.0039331664083290625  0.9994724905957204  1.0000
  Al  Al17      1.0  0.004621940307473662  0.0039331664083290625  0.999330834003038  1.0000
  Al  Al18      1.0  0.007002892868510125  0.0039331664083290625  0.9996141473563243  1.0000
  Os  Os1       1.0  0.00846802497320128  0.0018385014189594836  6.582571050141896e-05  1.0000
  Os  Os2       1.0  0.0017235456718167912  0.002073196927683179  0.9999654317190814  1.0000
  Os  Os3       1.0  0.005732799170728136  0.0021374801886247306  0.9998139134902657  1.0000
  Os  Os4       1.0  0.0006209422276551359  0.007850720862940135  0.9999294521003101  1.0000
  Os  Os5       1.0  0.00441453259089412  0.007878464236202788  0.9997837475153711  1.0000
  Os  Os6       1.0  0.006937820922616208  0.008212654288564002  5.4026896545327846e-05  1.0000
  Os  Os7       1.0  0.009542323055329253  0.0021374801886247306  0.9996722568984734  1.0000
  Os  Os8       1.0  0.003351847142334732  0.0021374801886247306  0.9995306004396367  1.0000
  Os  Os9       1.0  0.00716137076061432  0.0021374801886247306  0.9993889438460641  1.0000
  Os  Os10      1.0  0.002033580196308613  0.007878464236202788  0.9995004344622942  1.0000
  Os  Os11      1.0  0.005843103914458774  0.007878464236202788  0.9993587778693892  1.0000
  Os  Os12      1.0  0.008224056475495237  0.007878464236202788  0.9996420912226754  1.0000
