data_image0
_chemical_formula_structural       HBi6
_chemical_formula_sum              "H1 Bi6"
_cell_length_a       4.6662373542785645
_cell_length_b       4.666237275576976
_cell_length_c       106.36795043945312
_cell_angle_alpha    90.0
_cell_angle_beta     90.0
_cell_angle_gamma    120.00000055792867

_space_group_name_H-M_alt    "P 1"
_space_group_IT_number       1

loop_
  _space_group_symop_operation_xyz
  'x, y, z'

loop_
  _atom_site_type_symbol
  _atom_site_label
  _atom_site_symmetry_multiplicity
  _atom_site_fract_x
  _atom_site_fract_y
  _atom_site_fract_z
  _atom_site_occupancy
  H   H1        1.0  0.0016666666830049733  0.0016666667020044464  0.0003702093013414279  1.0000
  Bi  Bi1       1.0  0.008333333534435607  0.00500000022124523  0.9992402065725986  1.0000
  Bi  Bi2       1.0  0.0049999999795010495  0.008333333394790341  0.00022918895416393508  1.0000
  Bi  Bi3       1.0  0.0049999999795010495  0.008333333394790341  0.9996201031462086  1.0000
  Bi  Bi4       1.0  0.0016666666830049733  0.0016666667020044464  0.9994693958069439  1.0000
  Bi  Bi5       1.0  0.0016666666830049733  0.0016666667020044464  0.0  1.0000
  Bi  Bi6       1.0  0.008333333534435607  0.00500000022124523  0.9998492926607354  1.0000
