data_image0
_chemical_formula_structural       COCa8In16Au8
_chemical_formula_sum              "C1 O1 Ca8 In16 Au8"
_cell_length_a       4.671236991882324
_cell_length_b       23.522660490072063
_cell_length_c       101.32674407958984
_cell_angle_alpha    70.55254813432529
_cell_angle_beta     90.0
_cell_angle_gamma    90.0

_space_group_name_H-M_alt    "P 1"
_space_group_IT_number       1

loop_
  _space_group_symop_operation_xyz
  'x, y, z'

loop_
  _atom_site_type_symbol
  _atom_site_label
  _atom_site_symmetry_multiplicity
  _atom_site_fract_x
  _atom_site_fract_y
  _atom_site_fract_z
  _atom_site_occupancy
  C   C1        1.0  0.009999999744801452  0.004837137417311511  0.9996119589458187  1.0000
  O   O1        1.0  0.009999999744801452  0.004837137417311511  0.9997303879393454  1.0000
  Ca  Ca1       1.0  2.5000000979208723e-10  0.0003620844408161226  0.998810372837896  1.0000
  Ca  Ca2       1.0  0.009999999744801452  0.005341787436913306  0.9992217963168668  1.0000
  Ca  Ca3       1.0  0.005000000271148456  0.002115182801679967  0.9990613304501479  1.0000
  Ca  Ca4       1.0  0.00500000306238257  0.007257177389236959  0.9994289242406883  1.0000
  Ca  Ca5       1.0  0.005000000271148456  0.002929203545078582  0.9993796585691233  1.0000
  Ca  Ca6       1.0  0.005000000271148456  0.0078620842594275  0.9990036011311605  1.0000
  Ca  Ca7       1.0  2.5000000979208723e-10  0.004615182909169521  0.9988681019390632  1.0000
  Ca  Ca8       1.0  1.1499999832488375e-09  0.009637915149379951  0.9992782140621355  1.0000
  In  In1       1.0  0.00999999735231507  0.0017382978890470465  0.9993428679887109  1.0000
  In  In2       1.0  2.5000000979208723e-10  0.006813963696005094  0.9989304683208133  1.0000
  In  In3       1.0  2.5000000979208723e-10  0.0018139634810259869  0.9988522988839829  1.0000
  In  In4       1.0  1.3499999720687338e-09  0.00675027613528962  0.9992616580604927  1.0000
  In  In5       1.0  0.004999998676157535  0.0007404256689526398  0.9993491076541965  1.0000
  In  In6       1.0  0.005000000271148456  0.005663303472591926  0.9989412353376522  1.0000
  In  In7       1.0  0.005000000271148456  0.0006633037614701028  0.999019404404061  1.0000
  In  In8       1.0  0.005000001068643917  0.00581755501336869  0.9994296840029835  1.0000
  In  In9       1.0  0.005000000271148456  0.004313963588515541  0.9991236968318982  1.0000
  In  In10      1.0  0.005000000271148456  0.009313963803494649  0.9987372398097286  1.0000
  In  In11      1.0  0.004999998676157535  0.004376699194868844  0.9994316749950553  1.0000
  In  In12      1.0  0.005000000271148456  0.009313963803494649  0.9990455274324246  1.0000
  In  In13      1.0  2.5000000979208723e-10  0.0031633037010072285  0.9991344638227745  1.0000
  In  In14      1.0  2.5000000979208723e-10  0.00816330358008148  0.9987480068265675  1.0000
  In  In15      1.0  2.5000000979208723e-10  0.0031633037010072285  0.9988261759059576  1.0000
  In  In16      1.0  3.1500000615855356e-09  0.008200399568769107  0.999224946257216  1.0000
  Au  Au1       1.0  0.005000000271148456  0.0014296609494083646  0.998727858353754  1.0000
  Au  Au2       1.0  0.005000000271148456  0.006429660996435044  0.9991143151321408  1.0000
  Au  Au3       1.0  2.5000000979208723e-10  0.001047606377063939  0.9991438449277993  1.0000
  Au  Au4       1.0  2.5000000979208723e-10  0.006047606172161976  0.9987573879380829  1.0000
  Au  Au5       1.0  0.009999999744801452  0.003903189570856125  0.9993192344640281  1.0000
  Au  Au6       1.0  2.5000000979208723e-10  0.008929661103924598  0.9989210866210559  1.0000
  Au  Au7       1.0  0.005000000271148456  0.003547606400577279  0.9989506164232052  1.0000
  Au  Au8       1.0  0.005000004258625762  0.008651345791788261  0.9993313253622594  1.0000
