data_image0
_chemical_formula_structural       COTi4Ga6Ti4Ga6
_chemical_formula_sum              "C1 O1 Ti8 Ga12"
_cell_length_a       6.34120512008667
_cell_length_b       6.34120512008667
_cell_length_c       98.26215362548828
_cell_angle_alpha    90.0
_cell_angle_beta     90.0
_cell_angle_gamma    90.0

_space_group_name_H-M_alt    "P 1"
_space_group_IT_number       1

loop_
  _space_group_symop_operation_xyz
  'x, y, z'

loop_
  _atom_site_type_symbol
  _atom_site_label
  _atom_site_symmetry_multiplicity
  _atom_site_fract_x
  _atom_site_fract_y
  _atom_site_fract_z
  _atom_site_occupancy
  C   C1        1.0  0.009481928881147314  0.006998313941505004  0.0001643325790678258  1.0000
  O   O1        1.0  0.009481928881147314  0.006998313941505004  0.00028645451789471524  1.0000
  Ti  Ti1       1.0  0.009252897616951602  0.006964891396161257  0.9993845139448082  1.0000
  Ti  Ti2       1.0  0.007482766369344265  0.0012653683903773598  0.9993845139448082  1.0000
  Ti  Ti3       1.0  0.0035533746111677048  0.008735022056295044  0.9993845139448082  1.0000
  Ti  Ti4       1.0  0.0017832435104287551  0.0030354993442479215  0.9993845139448082  1.0000
  Ga  Ga1       1.0  0.008689931698726868  0.00395519947133396  0.9995899568134567  1.0000
  Ga  Ga2       1.0  0.00656306594852145  0.008172056138070309  0.9995899568134567  1.0000
  Ga  Ga3       1.0  0.0023462094286534896  0.006045190975338443  0.9995899568134567  1.0000
  Ga  Ga4       1.0  0.004473074738253743  0.001828334308602094  0.9995899568134567  1.0000
  Ga  Ga5       1.0  0.005518070343387597  0.00500019537020459  0.9993845139448082  1.0000
  Ga  Ga6       1.0  0.00051807060187596  1.9539999994021722e-07  0.9995899568134567  1.0000
  Ti  Ti5       1.0  0.009302970337717771  0.006908690738769893  0.9997984447539434  1.0000
  Ti  Ti6       1.0  0.007424640561121651  0.0012164637873359652  0.9997984938875727  1.0000
  Ti  Ti7       1.0  0.0036096698518010076  0.00878512591315949  0.9997984756899322  1.0000
  Ti  Ti8       1.0  0.001734351024029379  0.003092923121575405  0.9997984562791158  1.0000
  Ga  Ga7       1.0  0.008445352359493057  0.0039968240286796875  0.9999999150776778  1.0000
  Ga  Ga8       1.0  0.006521733071794494  0.00792581013636831  0.9999999029459175  1.0000
  Ga  Ga9       1.0  0.0025912033773469144  0.006004605364970153  0.0  1.0000
  Ga  Ga10      1.0  0.004513658586201376  0.002074052171580477  0.9999999423741385  1.0000
  Ga  Ga11      1.0  0.005518901618464258  0.005000057313919773  0.9997871758650838  1.0000
  Ga  Ga12      1.0  0.0005185062869492665  0.009999804441803872  0.9999762132575566  1.0000
