data_image0
_chemical_formula_structural       COMo4Si8
_chemical_formula_sum              "C1 O1 Mo4 Si8"
_cell_length_a       4.557439739727932
_cell_length_b       4.564632892608643
_cell_length_c       101.60810089111328
_cell_angle_alpha    90.0
_cell_angle_beta     89.89560420888301
_cell_angle_gamma    90.0

_space_group_name_H-M_alt    "P 1"
_space_group_IT_number       1

loop_
  _space_group_symop_operation_xyz
  'x, y, z'

loop_
  _atom_site_type_symbol
  _atom_site_label
  _atom_site_symmetry_multiplicity
  _atom_site_fract_x
  _atom_site_fract_y
  _atom_site_fract_z
  _atom_site_occupancy
  C   C1        1.0  0.0012292935924452175  5.000000244624935e-11  6.672415632801873e-05  1.0000
  O   O1        1.0  0.0012292935924452175  5.000000244624935e-11  0.00018482521533270092  1.0000
  Mo  Mo1       1.0  0.008749999705732427  0.004999999951032772  0.9994370399951097  1.0000
  Mo  Mo2       1.0  0.0012500000163481984  5.000000244624935e-11  0.9996314640371862  1.0000
  Mo  Mo3       1.0  0.006198235963332115  1.5000000733874805e-10  0.9999994934517453  1.0000
  Mo  Mo4       1.0  0.0037437182537602425  0.005000000359093003  0.9998242627006423  1.0000
  Si  Si1       1.0  0.008782619266255183  0.004999999951032772  0.9996954266219165  1.0000
  Si  Si2       1.0  0.0012362183828129219  5.000000244624935e-11  0.9998962602713488  1.0000
  Si  Si3       1.0  0.0062826188248538235  5.000000244624935e-11  0.9995010023803106  1.0000
  Si  Si4       1.0  0.0037826192008623897  0.004999999951032772  0.9993065781386379  1.0000
  Si  Si5       1.0  0.0037173808972268013  0.004999999951032772  0.9995675016519853  1.0000
  Si  Si6       1.0  0.006253074360474168  0.009999999902065545  0.9997579140625523  1.0000
  Si  Si7       1.0  0.0012173809667066452  5.000000244624935e-11  0.9993730774103377  1.0000
  Si  Si8       1.0  0.008571276294965655  0.005000000359093003  0.9999524654979773  1.0000
