data_image0
_chemical_formula_structural       COCa8Zn16Ca8Zn16
_chemical_formula_sum              "C1 O1 Ca16 Zn32"
_cell_length_a       16.081340816674413
_cell_length_b       7.494712829589844
_cell_length_c       102.609375
_cell_angle_alpha    90.0
_cell_angle_beta     73.16105299180879
_cell_angle_gamma    90.0

_space_group_name_H-M_alt    "P 1"
_space_group_IT_number       1

loop_
  _space_group_symop_operation_xyz
  'x, y, z'

loop_
  _atom_site_type_symbol
  _atom_site_label
  _atom_site_symmetry_multiplicity
  _atom_site_fract_x
  _atom_site_fract_y
  _atom_site_fract_z
  _atom_site_occupancy
  C   C1        1.0  0.0022063650814638457  0.006778871520514137  0.9997828820460791  1.0000
  O   O1        1.0  0.0022063650814638457  0.006778871520514137  0.9998998306613367  1.0000
  Ca  Ca1       1.0  0.0015695582403280253  0.005000010796051447  0.999539628153657  1.0000
  Ca  Ca2       1.0  0.006481639798151008  0.005000002843159037  0.9993224416707475  1.0000
  Ca  Ca3       1.0  0.001003766129555294  3.5000000393129133e-09  0.9995632449208567  1.0000
  Ca  Ca4       1.0  0.005883697013741016  0.00999999475109101  0.9993503911602273  1.0000
  Ca  Ca5       1.0  0.003981639856238341  2.699999942293087e-09  0.9992089411627648  1.0000
  Ca  Ca6       1.0  0.008946685686989758  0.009999997733425664  0.9994439630237248  1.0000
  Ca  Ca7       1.0  0.0034781799926342167  0.005000002843159037  0.9992317983236239  1.0000
  Ca  Ca8       1.0  0.008425859162782767  0.004999996878489729  0.999455385570057  1.0000
  Zn  Zn1       1.0  0.002050132420532965  0.0018848852066784957  0.9992966319189698  1.0000
  Zn  Zn2       1.0  0.007023099911422238  0.0017751338002571903  0.9995224065354106  1.0000
  Zn  Zn3       1.0  0.0004308302448556154  0.00309551823019259  0.9993680102529057  1.0000
  Zn  Zn4       1.0  0.005474388005018251  0.0032048098600214593  0.9995848710835781  1.0000
  Zn  Zn5       1.0  0.004499800655888095  0.0032096924389052447  0.99941433558981  1.0000
  Zn  Zn6       1.0  0.009590293344752943  0.003237463939199947  0.9996281884247702  1.0000
  Zn  Zn7       1.0  0.002962623199749608  0.0017967779697420439  0.9994804548057363  1.0000
  Zn  Zn8       1.0  0.00790968737025226  0.0018848852066784957  0.9992576080754015  1.0000
  Zn  Zn9       1.0  0.004499804044315896  0.006790324182639892  0.9994143290461971  1.0000
  Zn  Zn10      1.0  0.00959031270719752  0.006762547711787434  0.99962817302349  1.0000
  Zn  Zn11      1.0  0.0029626193272606926  0.008203231071702516  0.9994804596286591  1.0000
  Zn  Zn12      1.0  0.00790968737025226  0.008115120479639578  0.9992576080754015  1.0000
  Zn  Zn13      1.0  0.002050132420532965  0.008115120479639578  0.9992966319189698  1.0000
  Zn  Zn14      1.0  0.007023091198322178  0.008224868903726229  0.9995224185487642  1.0000
  Zn  Zn15      1.0  0.0004308498493307503  0.006904498391352547  0.9993679989068595  1.0000
  Zn  Zn16      1.0  0.005474380744101534  0.006795195329240839  0.9995848667661138  1.0000
  Ca  Ca9       1.0  0.001481639914325675  0.005000002843159037  0.9990954406547822  1.0000
  Ca  Ca10      1.0  0.006481639798151008  0.005000002843159037  0.9988684398352501  1.0000
  Ca  Ca11      1.0  0.0009781799297062714  2.699999942293087e-09  0.9991182978211354  1.0000
  Ca  Ca12      1.0  0.005978179934546883  2.699999942293087e-09  0.9988912969961091  1.0000
  Ca  Ca13      1.0  0.003981639856238341  2.699999942293087e-09  0.9987549393272676  1.0000
  Ca  Ca14      1.0  0.008981639740063675  2.699999942293087e-09  0.9989819403432327  1.0000
  Ca  Ca15      1.0  0.0034781799926342167  0.005000002843159037  0.9987777964881265  1.0000
  Ca  Ca16      1.0  0.008478179392398436  0.005000002843159037  0.9990047975260682  1.0000
  Zn  Zn17      1.0  0.002050132420532965  0.0018848852066784957  0.9988426300834725  1.0000
  Zn  Zn18      1.0  0.007050132304358298  0.0018848852066784957  0.9990696310994377  1.0000
  Zn  Zn19      1.0  0.00040968733273752254  0.0031151201217594193  0.9989171065610684  1.0000
  Zn  Zn20      1.0  0.005409687428339593  0.0031151201217594193  0.9991441075674189  1.0000
  Zn  Zn21      1.0  0.004550132362445631  0.0031151201217594193  0.998956130591455  1.0000
  Zn  Zn22      1.0  0.009550132730332079  0.0031151201217594193  0.9991831315854439  1.0000
  Zn  Zn23      1.0  0.0029096872443963692  0.0018848852066784957  0.9990306070704245  1.0000
  Zn  Zn24      1.0  0.00790968737025226  0.0018848852066784957  0.9988036062399042  1.0000
  Zn  Zn25      1.0  0.004550132362445631  0.006884885067502879  0.998956130591455  1.0000
  Zn  Zn26      1.0  0.009550132730332079  0.006884885067502879  0.9991831315854439  1.0000
  Zn  Zn27      1.0  0.0029096872443963692  0.008115120479639578  0.9990306070704245  1.0000
  Zn  Zn28      1.0  0.00790968737025226  0.008115120479639578  0.9988036062399042  1.0000
  Zn  Zn29      1.0  0.002050132420532965  0.008115120479639578  0.9988426300834725  1.0000
  Zn  Zn30      1.0  0.007050132304358298  0.008115120479639578  0.9990696310994377  1.0000
  Zn  Zn31      1.0  0.00040968733273752254  0.006884885067502879  0.9989171065610684  1.0000
  Zn  Zn32      1.0  0.005409687428339593  0.006884885067502879  0.9991441075674189  1.0000
