data_image0
_chemical_formula_structural       Co12Sn6V6H
_chemical_formula_sum              "Co12 Sn6 V6 H1"
_cell_length_a       6.027271747589111
_cell_length_b       7.381869971155984
_cell_length_c       102.45785522460938
_cell_angle_alpha    94.34775312888911
_cell_angle_beta     90.0
_cell_angle_gamma    114.09484321227575

_space_group_name_H-M_alt    "P 1"
_space_group_IT_number       1

loop_
  _space_group_symop_operation_xyz
  'x, y, z'

loop_
  _atom_site_type_symbol
  _atom_site_label
  _atom_site_symmetry_multiplicity
  _atom_site_fract_x
  _atom_site_fract_y
  _atom_site_fract_z
  _atom_site_occupancy
  Co  Co1       1.0  0.005043165706470809  0.0047080471245595215  2.5656289449878192e-05  1.0000
  Co  Co2       1.0  0.000620736451104029  0.00631963235974421  0.9997859446750268  1.0000
  Co  Co3       1.0  0.0064540698486252  0.007986299092979314  0.9995219509900423  1.0000
  Co  Co4       1.0  0.009587597167346699  0.004712993714128933  2.5742063939649272e-05  1.0000
  Co  Co5       1.0  0.005620736482007649  0.00631963235974421  0.9997859446750268  1.0000
  Co  Co6       1.0  0.001454069817721581  0.007986299092979314  0.9995219509900423  1.0000
  Co  Co7       1.0  0.009370736153948742  0.003819632259891555  0.9993899543384361  1.0000
  Co  Co8       1.0  0.008172400919192514  0.0007637010484786148  0.9999462623514682  1.0000
  Co  Co9       1.0  0.003537403134805891  0.0021529656653406946  0.9996539477333042  1.0000
  Co  Co10      1.0  0.004370736432081321  0.003819632259891555  0.9993899543384361  1.0000
  Co  Co11      1.0  0.002514349617293503  0.0007644443960196052  0.9999460022980255  1.0000
  Co  Co12      1.0  0.008537403474745709  0.0021529656653406946  0.9996539477333042  1.0000
  Sn  Sn1       1.0  0.005412403202553586  0.0009029656154143671  0.9994559527104457  1.0000
  Sn  Sn2       1.0  0.0038663507018223426  0.007808502565387779  4.384479591179772e-06  1.0000
  Sn  Sn3       1.0  0.009579069587920904  0.009236299004221397  0.9997199460121432  1.0000
  Sn  Sn4       1.0  0.0024957364940343795  0.005069632448502125  0.999587949362052  1.0000
  Sn  Sn5       1.0  0.001160916598627098  0.002412004947845494  0.0001578758656493492  1.0000
  Sn  Sn6       1.0  0.006581096669009325  0.003232546912019817  0.9998401576869838  1.0000
  V   V1        1.0  0.007495736619097465  0.005069632448502125  0.999587949362052  1.0000
  V   V2        1.0  0.00599192299537263  0.002066261247580548  9.622854393469628e-05  1.0000
  V   V3        1.0  0.0017263625143169115  0.0035282147832911594  0.9998644793906377  1.0000
  V   V4        1.0  0.00041240313060609705  0.0009029656154143671  0.9994559527104457  1.0000
  V   V5        1.0  0.008788078276195845  0.007649740172741365  0.9999694903118312  1.0000
  V   V6        1.0  0.004579069718778419  0.009236299004221397  0.9997199460121432  1.0000
  H   H1        1.0  0.006896568732994334  0.00854166679980354  1.2504841345023052e-05  1.0000
