data_image0
_chemical_formula_structural       COFe24Ga8
_chemical_formula_sum              "C1 O1 Fe24 Ga8"
_cell_length_a       6.211776256561279
_cell_length_b       5.071893692016602
_cell_length_c       105.13911437988281
_cell_angle_alpha    90.0
_cell_angle_beta     90.0
_cell_angle_gamma    90.0

_space_group_name_H-M_alt    "P 1"
_space_group_IT_number       1

loop_
  _space_group_symop_operation_xyz
  'x, y, z'

loop_
  _atom_site_type_symbol
  _atom_site_label
  _atom_site_symmetry_multiplicity
  _atom_site_fract_x
  _atom_site_fract_y
  _atom_site_fract_z
  _atom_site_occupancy
  C   C1        1.0  0.005000000023988567  0.006250000293798768  2.548213568100648e-05  1.0000
  O   O1        1.0  0.005000000023988567  0.006250000293798768  0.0001396168646015607  1.0000
  Fe  Fe1       1.0  0.0016666665747104928  0.0012500000954845996  0.999930371278861  1.0000
  Fe  Fe2       1.0  0.008333333173409552  0.006250000293798768  0.9997911149704074  1.0000
  Fe  Fe3       1.0  0.005000000023988567  0.0012500000954845996  0.9996518586619537  1.0000
  Fe  Fe4       1.0  0.0016666665747104928  0.006250000293798768  0.9995126023535001  1.0000
  Fe  Fe5       1.0  0.005000000023988567  0.008750000117519507  0.9998607431246341  1.0000
  Fe  Fe6       1.0  0.0016666665747104928  0.003750000102829569  0.9997214868161806  1.0000
  Fe  Fe7       1.0  0.008333333173409552  0.008750000117519507  0.9995822305077269  1.0000
  Fe  Fe8       1.0  0.008333333173409552  0.003750000102829569  0.0  1.0000
  Fe  Fe9       1.0  0.005000000023988567  0.003750000102829569  0.9998607431246341  1.0000
  Fe  Fe10      1.0  0.0016666665747104928  0.008750000117519507  0.9997214868161806  1.0000
  Fe  Fe11      1.0  0.008333333173409552  0.003750000102829569  0.9995822305077269  1.0000
  Fe  Fe12      1.0  0.008333333173409552  0.008750000117519507  0.0  1.0000
  Fe  Fe13      1.0  0.008333333173409552  0.0012500000954845996  0.9993733460450465  1.0000
  Fe  Fe14      1.0  0.005000000023988567  0.006250000293798768  0.9992340894531367  1.0000
  Fe  Fe15      1.0  0.0016666665747104928  0.0012500000954845996  0.9990948331446831  1.0000
  Fe  Fe16      1.0  0.008333333173409552  0.006250000293798768  0.9989555765527733  1.0000
  Fe  Fe17      1.0  0.0016666665747104928  0.008750000117519507  0.9993037178908196  1.0000
  Fe  Fe18      1.0  0.008333333173409552  0.003750000102829569  0.9991644612989099  1.0000
  Fe  Fe19      1.0  0.005000000023988567  0.008750000117519507  0.9990252047070002  1.0000
  Fe  Fe20      1.0  0.005000000023988567  0.003750000102829569  0.9994429741992733  1.0000
  Fe  Fe21      1.0  0.0016666665747104928  0.003750000102829569  0.9993037178908196  1.0000
  Fe  Fe22      1.0  0.008333333173409552  0.008750000117519507  0.9991644612989099  1.0000
  Fe  Fe23      1.0  0.005000000023988567  0.003750000102829569  0.9990252047070002  1.0000
  Fe  Fe24      1.0  0.005000000023988567  0.008750000117519507  0.9994429741992733  1.0000
  Ga  Ga1       1.0  0.0016666665747104928  0.0012500000954845996  0.9995126023535001  1.0000
  Ga  Ga2       1.0  0.0016666665747104928  0.006250000293798768  0.999930371278861  1.0000
  Ga  Ga3       1.0  0.008333333173409552  0.0012500000954845996  0.9997911149704074  1.0000
  Ga  Ga4       1.0  0.005000000023988567  0.006250000293798768  0.9996518586619537  1.0000
  Ga  Ga5       1.0  0.008333333173409552  0.0012500000954845996  0.9989555765527733  1.0000
  Ga  Ga6       1.0  0.008333333173409552  0.006250000293798768  0.9993733460450465  1.0000
  Ga  Ga7       1.0  0.005000000023988567  0.0012500000954845996  0.9992340894531367  1.0000
  Ga  Ga8       1.0  0.0016666665747104928  0.006250000293798768  0.9990948331446831  1.0000
