data_image0
_chemical_formula_structural       Fe4Ni4Pt8Fe4Ni4Pt8CO
_chemical_formula_sum              "Fe8 Ni8 Pt16 C1 O1"
_cell_length_a       5.428437232971191
_cell_length_b       8.502256996379705
_cell_length_c       109.26239776611328
_cell_angle_alpha    106.83733173028759
_cell_angle_beta     90.0
_cell_angle_gamma    50.32216378322619

_space_group_name_H-M_alt    "P 1"
_space_group_IT_number       1

loop_
  _space_group_symop_operation_xyz
  'x, y, z'

loop_
  _atom_site_type_symbol
  _atom_site_label
  _atom_site_symmetry_multiplicity
  _atom_site_fract_x
  _atom_site_fract_y
  _atom_site_fract_z
  _atom_site_occupancy
  Fe  Fe1       1.0  0.00812499970467685  0.007534518904265427  0.9991471891248059  1.0000
  Fe  Fe2       1.0  0.005625000069682764  0.005034518621610072  0.9992969141677952  1.0000
  Fe  Fe3       1.0  0.00062500000500333  3.4518550754212477e-05  0.9995963645376779  1.0000
  Fe  Fe4       1.0  0.0031249997843272696  0.002534518646188799  0.9994466394904686  1.0000
  Ni  Ni1       1.0  0.0006249998089059964  0.005034518621610072  0.9992969141677952  1.0000
  Ni  Ni2       1.0  0.008125000045104037  0.002534518646188799  0.9994466394904686  1.0000
  Ni  Ni3       1.0  0.003124999787027409  0.007534518904265427  0.9991471891248059  1.0000
  Ni  Ni4       1.0  0.005624999879761856  3.4518550754212477e-05  0.9995963645376779  1.0000
  Pt  Pt1       1.0  0.0043750004085029  0.008784518584741982  0.9993717768989413  1.0000
  Pt  Pt2       1.0  0.0018749997800200807  0.006284518609320709  0.9995215022216147  1.0000
  Pt  Pt3       1.0  0.0068749998076711475  0.0012845185816696418  0.9992220517076771  1.0000
  Pt  Pt4       1.0  0.009375000359345447  0.0037845186338994357  0.9990723263867348  1.0000
  Pt  Pt5       1.0  0.00937499963989769  0.008784518584741982  0.9993717768989413  1.0000
  Pt  Pt6       1.0  0.006875000383924173  0.006284518609320709  0.9995215022216147  1.0000
  Pt  Pt7       1.0  0.0018749998900217059  0.0012845185816696418  0.9992220517076771  1.0000
  Pt  Pt8       1.0  0.004374999755441354  0.0037845186338994357  0.9990723263867348  1.0000
  Fe  Fe5       1.0  0.00812499970467685  0.007534518904265427  0.9997460900096  1.0000
  Fe  Fe6       1.0  0.005625000069682764  0.005034518621610072  0.9998958150525894  1.0000
  Fe  Fe7       1.0  0.0008753228236311983  0.009785186133122944  0.00017603122165272  1.0000
  Fe  Fe8       1.0  0.0030083750914952573  0.0026495556888858616  4.91923824773978e-05  1.0000
  Ni  Ni5       1.0  0.0006249998089059964  0.005034518621610072  0.9998958150525894  1.0000
  Ni  Ni6       1.0  0.0080865696373547  0.0025744334227481187  5.802657376019616e-05  1.0000
  Ni  Ni7       1.0  0.003124999787027409  0.007534518904265427  0.9997460900096  1.0000
  Ni  Ni8       1.0  0.0056918685060936575  0.00996548153815165  0.00017832970171791695  1.0000
  Pt  Pt9       1.0  0.004318888782581641  0.008830565599952557  0.999968115787087  1.0000
  Pt  Pt10      1.0  0.0019516513340796942  0.00621592368486313  0.00011857688392056777  1.0000
  Pt  Pt11      1.0  0.0068749998076711475  0.0012845185816696418  0.999820952319712  1.0000
  Pt  Pt12      1.0  0.009375000359345447  0.0037845186338994357  0.999671227271529  1.0000
  Pt  Pt13      1.0  0.009336761243219008  0.008831873188203752  0.999968195447229  1.0000
  Pt  Pt14      1.0  0.006935912209311872  0.006216230918944708  0.00011860781164699461  1.0000
  Pt  Pt15      1.0  0.0018749998900217059  0.0012845185816696418  0.999820952319712  1.0000
  Pt  Pt16      1.0  0.004374999755441354  0.0037845186338994357  0.999671227271529  1.0000
  C   C1        1.0  0.0006319799190611433  0.005027236559408512  0.00027850443624754856  1.0000
  O   O1        1.0  0.0006319799190611433  0.005027236559408512  0.0003883320124680731  1.0000
