data_image0
_chemical_formula_structural       COGa12Se18
_chemical_formula_sum              "C1 O1 Ga12 Se18"
_cell_length_a       10.525255159422997
_cell_length_b       10.525255411821988
_cell_length_c       101.87966918945312
_cell_angle_alpha    94.38201101943329
_cell_angle_beta     98.23972503666698
_cell_angle_gamma    109.54167465934178

_space_group_name_H-M_alt    "P 1"
_space_group_IT_number       1

loop_
  _space_group_symop_operation_xyz
  'x, y, z'

loop_
  _atom_site_type_symbol
  _atom_site_label
  _atom_site_symmetry_multiplicity
  _atom_site_fract_x
  _atom_site_fract_y
  _atom_site_fract_z
  _atom_site_occupancy
  C   C1        1.0  0.004170001704649  0.005376189411392806  0.00016887238142599174  1.0000
  O   O1        1.0  0.004170001704649  0.005376189411392806  0.00028665804768817233  1.0000
  Ga  Ga1       1.0  0.008441786626880504  0.0009229929935949505  0.9994652161583732  1.0000
  Ga  Ga2       1.0  0.0065526126104387865  0.00431653967804593  0.9999661447718032  1.0000
  Ga  Ga3       1.0  0.0026084529285195068  0.007589659493521561  0.9997259787765875  1.0000
  Ga  Ga4       1.0  0.005547646609815413  0.004278853014674774  0.9995955973360887  1.0000
  Ga  Ga5       1.0  0.0013809799246796318  0.00761218683307009  0.9993348348960744  1.0000
  Ga  Ga6       1.0  0.009691370485424494  0.0011164072906853257  0.9998557308609174  1.0000
  Ga  Ga7       1.0  0.006007927032958231  0.0008554505757127914  0.9997077030478769  1.0000
  Ga  Ga8       1.0  0.0018412603932148127  0.004188783825676097  0.9994469406040477  1.0000
  Ga  Ga9       1.0  0.00979486815379079  0.007898321107103529  0.9999180790390054  1.0000
  Ga  Ga10      1.0  0.006157080879845214  0.007499137832642168  0.9998305456105192  1.0000
  Ga  Ga11      1.0  0.0022234511946148425  0.0008209747005554736  0.9995773217040285  1.0000
  Ga  Ga12      1.0  0.008056784410363534  0.004154308045257447  0.9993165594343223  1.0000
  Se  Se1       1.0  0.0072264343111348075  7.765889711966314e-05  0.9998906646813606  1.0000
  Se  Se2       1.0  0.00310466592769858  0.0033775699553966103  0.9996327791097381  1.0000
  Se  Se3       1.0  0.008937999400838155  0.006710903015882579  0.9993720165490747  1.0000
  Se  Se4       1.0  0.009461893218682783  0.003484796696213732  0.9995023979303524  1.0000
  Se  Se5       1.0  0.007706235060343554  0.006854090281530945  1.404154375593695e-05  1.0000
  Se  Se6       1.0  0.0036183634250296424  0.00015951360407413502  0.9997583988147241  1.0000
  Se  Se7       1.0  0.006048779406144264  0.00010549569955111637  0.9994806233489313  1.0000
  Se  Se8       1.0  0.005205463421367563  0.003209005611051497  0.0001024024461190664  1.0000
  Se  Se9       1.0  0.00019264591144958868  0.0066362822931227625  0.9997391400755191  1.0000
  Se  Se10      1.0  0.000341568894697549  0.0034484488797056952  0.999843085651564  1.0000
  Se  Se11      1.0  0.006414381284478172  0.006721097654521588  0.9996110047243297  1.0000
  Se  Se12      1.0  0.002247714571992424  5.443110130447658e-05  0.9993502422166217  1.0000
  Se  Se13      1.0  0.00704853712424571  0.00343373975403574  0.9997542399423595  1.0000
  Se  Se14      1.0  0.002868554007204984  0.006756768657981923  0.9994944685544406  1.0000
  Se  Se15      1.0  0.0010160273450289426  0.00018515799976636383  1.218073546651188e-05  1.0000
  Se  Se16      1.0  0.009807353995441123  0.009945569163726948  0.9996248497255835  1.0000
  Se  Se17      1.0  0.005640687525728048  0.0032789022848456646  0.999364087511424  1.0000
  Se  Se18      1.0  0.003912164027257711  0.006761838313610228  0.9998902034811867  1.0000
