data_image0
_chemical_formula_structural       COAu12Se12Au12Se12
_chemical_formula_sum              "C1 O1 Au24 Se24"
_cell_length_a       12.198833920945372
_cell_length_b       10.194108166290048
_cell_length_c       107.59009552001953
_cell_angle_alpha    110.80751235121258
_cell_angle_beta     98.48015635339398
_cell_angle_gamma    51.921675846997246

_space_group_name_H-M_alt    "P 1"
_space_group_IT_number       1

loop_
  _space_group_symop_operation_xyz
  'x, y, z'

loop_
  _atom_site_type_symbol
  _atom_site_label
  _atom_site_symmetry_multiplicity
  _atom_site_fract_x
  _atom_site_fract_y
  _atom_site_fract_z
  _atom_site_occupancy
  C   C1        1.0  0.009237366304601674  0.009811259401676303  0.00032956378187866295  1.0000
  O   O1        1.0  0.009237366304601674  0.009811259401676303  0.00044109843811904333  1.0000
  Au  Au1       1.0  0.006697932235963219  0.0033373296097194845  0.9993506919424329  1.0000
  Au  Au2       1.0  3.126534963125819e-05  3.996400135483103e-06  0.9991177702796737  1.0000
  Au  Au3       1.0  0.0033645988902423984  0.006670662985826715  0.9988848486060825  1.0000
  Au  Au4       1.0  0.003364598691054286  0.0016706631684383535  0.9988848487086179  1.0000
  Au  Au5       1.0  0.006697931947943943  0.008337329797266573  0.99935069184421  1.0000
  Au  Au6       1.0  3.126528584983329e-05  0.005003996667931826  0.9991177701879012  1.0000
  Au  Au7       1.0  0.003364598691054286  0.0016706631684383535  0.9992342311148555  1.0000
  Au  Au8       1.0  0.006697931947943943  0.008337329797266573  0.9990013094379724  1.0000
  Au  Au9       1.0  3.126528584983329e-05  0.005003996667931826  0.9994671528711374  1.0000
  Au  Au10      1.0  0.0033645988902423984  0.006670662985826715  0.9992342310123201  1.0000
  Au  Au11      1.0  0.006697932235963219  0.0033373296097194845  0.9990013095361953  1.0000
  Au  Au12      1.0  3.126534963125819e-05  3.996400135483103e-06  0.9994671526859112  1.0000
  Se  Se1       1.0  0.0053218582231978565  0.003345322570488961  0.999507763758451  1.0000
  Se  Se2       1.0  0.008655192183643357  1.1989200165460556e-05  0.9992748422927992  1.0000
  Se  Se3       1.0  0.001988524877477037  0.0066786559465961915  0.9990419206990995  1.0000
  Se  Se4       1.0  0.00474067239506316  0.001662670207668877  0.9990771590166762  1.0000
  Se  Se5       1.0  0.00807400634028775  0.008329337330042066  0.9988442373679137  1.0000
  Se  Se6       1.0  0.0014073389898587067  0.00499600370716235  0.999310080772958  1.0000
  Se  Se7       1.0  0.00532185879062609  0.00834532226449108  0.999158381528681  1.0000
  Se  Se8       1.0  0.008655191399866667  0.005011989135156335  0.9989254597715491  1.0000
  Se  Se9       1.0  0.0019885251060126783  0.0016786558824353457  0.9993913032067182  1.0000
  Se  Se10      1.0  0.0014073392003851424  0.009996004141481923  0.9989606982851392  1.0000
  Se  Se11      1.0  0.00474067290300776  0.006662670025057238  0.9994265416025395  1.0000
  Se  Se12      1.0  0.008074006129761314  0.0033293368957224923  0.9991936198557326  1.0000
  Au  Au13      1.0  0.006871774711797686  0.003378198834722166  6.652470687094656e-05  1.0000
  Au  Au14      1.0  3.126534963125819e-05  3.996400135483103e-06  0.9998165350921489  1.0000
  Au  Au15      1.0  0.0033645988902423984  0.006670662985826715  0.9995836134185577  1.0000
  Au  Au16      1.0  0.003364598691054286  0.0016706631684383535  0.9995836137980918  1.0000
  Au  Au17      1.0  0.007500876184711687  0.006739589501987383  0.9999705082733269  1.0000
  Au  Au18      1.0  3.126528584983329e-05  0.005003996667931826  0.999816535277375  1.0000
  Au  Au19      1.0  0.0034263001302363774  0.0017200095218248901  0.9999489459135226  1.0000
  Au  Au20      1.0  0.006697931947943943  0.008337329797266573  0.9997000745274462  1.0000
  Au  Au21      1.0  0.009968734608675181  0.004271292145897515  6.370350097226722e-05  1.0000
  Au  Au22      1.0  0.0032381626823006233  0.006483947027415768  0.9999440581629147  1.0000
  Au  Au23      1.0  0.006697932235963219  0.0033373296097194845  0.9997000743486704  1.0000
  Au  Au24      1.0  0.000796089591318355  0.0010392260538930258  9.474706327071921e-05  1.0000
  Se  Se13      1.0  0.005091058385066526  0.004179907359477245  0.0002258098984324319  1.0000
  Se  Se14      1.0  0.009118822671825783  0.0003058587009656361  3.301651559474905e-05  1.0000
  Se  Se15      1.0  0.001988524877477037  0.0066786559465961915  0.9997406857885733  1.0000
  Se  Se16      1.0  0.00474067239506316  0.001662670207668877  0.9997759238291513  1.0000
  Se  Se17      1.0  0.00807400634028775  0.008329337330042066  0.9995430024573876  1.0000
  Se  Se18      1.0  0.0014145381077286892  0.005036845540419264  5.6246992063923766e-06  1.0000
  Se  Se19      1.0  0.00532185879062609  0.00834532226449108  0.9998571463411561  1.0000
  Se  Se20      1.0  0.008655191399866667  0.005011989135156335  0.999624224861023  1.0000
  Se  Se21      1.0  0.002354127199158028  0.0018778452028424021  0.00014901438059587054  1.0000
  Se  Se22      1.0  0.0014073392003851424  0.009996004141481923  0.9996594630976143  1.0000
  Se  Se23      1.0  0.0044753140575657276  0.0064315621644289046  0.0001464150430059077  1.0000
  Se  Se24      1.0  0.008074006129761314  0.0033293368957224923  0.9998923849452065  1.0000
