data_image0
_chemical_formula_structural       COAu4Pb8
_chemical_formula_sum              "C1 O1 Au4 Pb8"
_cell_length_a       6.086543158333746
_cell_length_b       6.086543148902993
_cell_length_c       106.98147583007812
_cell_angle_alpha    90.00900318233444
_cell_angle_beta     90.00900318232047
_cell_angle_gamma    76.66196064022904

_space_group_name_H-M_alt    "P 1"
_space_group_IT_number       1

loop_
  _space_group_symop_operation_xyz
  'x, y, z'

loop_
  _atom_site_type_symbol
  _atom_site_label
  _atom_site_symmetry_multiplicity
  _atom_site_fract_x
  _atom_site_fract_y
  _atom_site_fract_z
  _atom_site_occupancy
  C   C1        1.0  0.00075095082218014  0.005271078892151253  0.00012764156300710768  1.0000
  O   O1        1.0  0.00075095082218014  0.005271078892151253  0.00023981018491984137  1.0000
  Au  Au1       1.0  0.007374049138877902  0.007208104733754919  0.9993189235246485  1.0000
  Au  Au2       1.0  0.0009712444779763711  0.0009343427810513251  0.9997532383790051  1.0000
  Au  Au3       1.0  0.009249048528836394  0.009083104406664102  0.9995349743841548  1.0000
  Au  Au4       1.0  0.0030646138671141005  0.0031466353591775202  0.9999629020332252  1.0000
  Pb  Pb1       1.0  0.0026003773888191688  0.005617413656880968  0.9997117682506083  1.0000
  Pb  Pb2       1.0  0.008850377456015994  0.0018674135247865999  0.9992796667872956  1.0000
  Pb  Pb3       1.0  0.002714740349150897  0.005731776557841975  0.9993581805634345  1.0000
  Pb  Pb4       1.0  0.0063749955827585416  0.009440566863884649  0.9997995972036817  1.0000
  Pb  Pb5       1.0  0.0039083578980378085  0.000559433095228999  0.9994957173910931  1.0000
  Pb  Pb6       1.0  0.007819258105296937  0.004178256836218201  0.9999342288203686  1.0000
  Pb  Pb7       1.0  0.007772720771698347  0.004423795735146373  0.9995742314229457  1.0000
  Pb  Pb8       1.0  0.0013678897833968504  0.008487254388008856  8.810458580619097e-08  1.0000
