data_image0
_chemical_formula_structural       CONi2As2Ni2As2Ni2As2Ni2As2Ni2As2Ni2As2Ni2As2Ni2As2
_chemical_formula_sum              "C1 O1 Ni16 As16"
_cell_length_a       7.359626859005805
_cell_length_b       7.359626770019531
_cell_length_c       100.51222229003906
_cell_angle_alpha    90.0
_cell_angle_beta     90.0
_cell_angle_gamma    119.99999960002835

_space_group_name_H-M_alt    "P 1"
_space_group_IT_number       1

loop_
  _space_group_symop_operation_xyz
  'x, y, z'

loop_
  _atom_site_type_symbol
  _atom_site_label
  _atom_site_symmetry_multiplicity
  _atom_site_fract_x
  _atom_site_fract_y
  _atom_site_fract_z
  _atom_site_occupancy
  C   C1        1.0  0.002502221886306754  0.004167724592606256  5.854006193707797e-05  1.0000
  O   O1        1.0  0.002502221886306754  0.004167724592606256  0.00017792817654291242  1.0000
  Ni  Ni1       1.0  0.002499889497183921  0.0041665639660165  0.9996308910834837  1.0000
  Ni  Ni2       1.0  0.002502221886306754  0.004167724592606256  0.9998862175987514  1.0000
  As  As1       1.0  0.0008312953670579745  0.0008322754338700954  0.0  1.0000
  As  As2       1.0  0.004168704708925132  0.0025009671023244  0.9997714887552605  1.0000
  Ni  Ni3       1.0  0.002499889497183921  0.0041665639660165  0.9991249459507946  1.0000
  Ni  Ni4       1.0  0.002499889497183921  0.0041665639660165  0.9993779185171392  1.0000
  As  As3       1.0  0.000833222926957351  0.0008332305771364704  0.9995044049485636  1.0000
  As  As4       1.0  0.00416655614047117  0.0024998971206209746  0.9992514323822191  1.0000
  Ni  Ni5       1.0  0.002499889497183921  0.009166563793915559  0.9996308910834837  1.0000
  Ni  Ni6       1.0  0.002502221886306754  0.009167724420505315  0.9998862175987514  1.0000
  As  As5       1.0  0.0008312953670579745  0.005832275293405356  0.0  1.0000
  As  As6       1.0  0.004168704708925132  0.00750096730985789  0.9997714887552605  1.0000
  Ni  Ni7       1.0  0.002499889497183921  0.009166563793915559  0.9991249459507946  1.0000
  Ni  Ni8       1.0  0.002499889497183921  0.009166563793915559  0.9993779185171392  1.0000
  As  As7       1.0  0.000833222926957351  0.005833230468307934  0.9995044049485636  1.0000
  As  As8       1.0  0.00416655614047117  0.007499897075064843  0.9992514323822191  1.0000
  Ni  Ni9       1.0  0.007499889719288386  0.004166563973301988  0.9996308910834837  1.0000
  Ni  Ni10      1.0  0.007502221816168502  0.004167724517042791  0.9998862175987514  1.0000
  As  As9       1.0  0.0058312954430410815  0.0008322754630035121  0.0  1.0000
  As  As10      1.0  0.009168704346544163  0.0025009668806395763  0.9997714887552605  1.0000
  Ni  Ni11      1.0  0.007499889719288386  0.004166563973301988  0.9991249459507946  1.0000
  Ni  Ni12      1.0  0.007499889719288386  0.004166563973301988  0.9993779185171392  1.0000
  As  As11      1.0  0.005833223076001137  0.0008332306744364288  0.9995044049485636  1.0000
  As  As12      1.0  0.009166556362575635  0.002499897191178868  0.9992514323822191  1.0000
  Ni  Ni13      1.0  0.007499889719288386  0.009166563864473452  0.9996308910834837  1.0000
  Ni  Ni14      1.0  0.007502221816168502  0.00916772434494185  0.9998862175987514  1.0000
  As  As13      1.0  0.0058312954430410815  0.005832275543992191  0.0  1.0000
  As  As14      1.0  0.009168704346544163  0.0075009668350834455  0.9997714887552605  1.0000
  Ni  Ni15      1.0  0.007499889719288386  0.009166563864473452  0.9991249459507946  1.0000
  Ni  Ni16      1.0  0.007499889719288386  0.009166563864473452  0.9993779185171392  1.0000
  As  As15      1.0  0.005833223076001137  0.005833230755425109  0.9995044049485636  1.0000
  As  As16      1.0  0.009166556362575635  0.007499897145622736  0.9992514323822191  1.0000
