data_image0
_chemical_formula_structural       HFe4Ge8
_chemical_formula_sum              "H1 Fe4 Ge8"
_cell_length_a       4.869952694299557
_cell_length_b       4.869952581327348
_cell_length_c       100.4878158569336
_cell_angle_alpha    86.70536891417677
_cell_angle_beta     86.70536899068934
_cell_angle_gamma    75.02217311089127

_space_group_name_H-M_alt    "P 1"
_space_group_IT_number       1

loop_
  _space_group_symop_operation_xyz
  'x, y, z'

loop_
  _atom_site_type_symbol
  _atom_site_label
  _atom_site_symmetry_multiplicity
  _atom_site_fract_x
  _atom_site_fract_y
  _atom_site_fract_z
  _atom_site_occupancy
  H   H1        1.0  0.004199124690142521  0.004979432335438392  0.0001076153446447788  1.0000
  Fe  Fe1       1.0  0.0010367516618712996  0.0009572383545703484  0.9997893453208865  1.0000
  Fe  Fe2       1.0  0.0070882485485531796  0.0070954186309119495  0.9994154969530457  1.0000
  Fe  Fe3       1.0  0.008963248452067208  0.008970418947964347  0.9996051205773202  1.0000
  Fe  Fe4       1.0  0.002960378407168033  0.0031959420590549404  0.9999737212436319  1.0000
  Ge  Ge1       1.0  0.003611397292321078  0.0004951064963940997  0.9995695370828448  1.0000
  Ge  Ge2       1.0  0.007781656592314415  0.003992728022815598  0.9999672060036081  1.0000
  Ge  Ge3       1.0  0.0023816222339171998  0.005622617509763945  0.9997571320022702  1.0000
  Ge  Ge4       1.0  0.008612936701153708  0.0017435672367311036  0.9993799132677316  1.0000
  Ge  Ge5       1.0  0.007438560635111058  0.00432226950988265  0.9996407044538264  1.0000
  Ge  Ge6       1.0  0.002343889883898696  0.008238179303783373  1.2735602725520173e-05  1.0000
  Ge  Ge7       1.0  0.0024400994795834297  0.005570730299759091  0.9994510805333796  1.0000
  Ge  Ge8       1.0  0.0064978691218224765  0.009504893989092383  0.9998423652806254  1.0000
