data_image0
_chemical_formula_structural       HGa16
_chemical_formula_sum              "H1 Ga16"
_cell_length_a       4.5585940050981355
_cell_length_b       6.52440659334862
_cell_length_c       106.44440460205078
_cell_angle_alpha    88.45677653269257
_cell_angle_beta     87.25637367379733
_cell_angle_gamma    70.26689577411298

_space_group_name_H-M_alt    "P 1"
_space_group_IT_number       1

loop_
  _space_group_symop_operation_xyz
  'x, y, z'

loop_
  _atom_site_type_symbol
  _atom_site_label
  _atom_site_symmetry_multiplicity
  _atom_site_fract_x
  _atom_site_fract_y
  _atom_site_fract_z
  _atom_site_occupancy
  H   H1        1.0  0.0004826888315153206  0.007212056578454598  0.00010265440172463629  1.0000
  Ga  Ga1       1.0  0.0016352209065459877  0.0010572622545526316  0.9998983469913587  1.0000
  Ga  Ga2       1.0  0.009108290585669632  0.006909449560622072  0.9996149153096928  1.0000
  Ga  Ga3       1.0  0.008014737230587753  0.0032115984757446255  0.9997040813356934  1.0000
  Ga  Ga4       1.0  0.0006491693345991297  0.007244363779059398  0.9999867108585009  1.0000
  Ga  Ga5       1.0  0.003423757944606518  0.007257217259726637  0.9997507612860185  1.0000
  Ga  Ga6       1.0  0.00626280844995162  0.001379647013719801  7.148701986117129e-06  1.0000
  Ga  Ga7       1.0  0.00671188028787539  0.005263078112045817  0.9999699645248386  1.0000
  Ga  Ga8       1.0  0.0045173110691458405  0.0009550683476372814  0.9996615958904408  1.0000
  Ga  Ga9       1.0  0.006608290521978946  0.0027427831163899393  0.9993295993925054  1.0000
  Ga  Ga10      1.0  0.004108290944946787  0.008576116138314925  0.9990442828452463  1.0000
  Ga  Ga11      1.0  0.0030147370344432186  0.004878265356757298  0.9991334485919047  1.0000
  Ga  Ga12      1.0  0.005514737360851628  0.00904493210430925  0.9994187647880329  1.0000
  Ga  Ga13      1.0  0.00842375774754887  0.00892388383741949  0.99918012885631  1.0000
  Ga  Ga14      1.0  0.0009237578227329614  0.003090550512174685  0.9994654453694511  1.0000
  Ga  Ga15      1.0  0.002017311235997711  0.006788401900371951  0.9993762793428305  1.0000
  Ga  Ga16      1.0  0.009517311726815605  0.0026217348495001795  0.999090962899145  1.0000
