data_image0
_chemical_formula_structural       COCa6Zn2Ca6Zn2
_chemical_formula_sum              "C1 O1 Ca12 Zn4"
_cell_length_a       7.030583981305532
_cell_length_b       8.301997184753418
_cell_length_c       100.90729522705078
_cell_angle_alpha    90.0
_cell_angle_beta     90.0
_cell_angle_gamma    107.17013542411549

_space_group_name_H-M_alt    "P 1"
_space_group_IT_number       1

loop_
  _space_group_symop_operation_xyz
  'x, y, z'

loop_
  _atom_site_type_symbol
  _atom_site_label
  _atom_site_symmetry_multiplicity
  _atom_site_fract_x
  _atom_site_fract_y
  _atom_site_fract_z
  _atom_site_occupancy
  C   C1        1.0  0.009336581177275163  0.004969409006550742  0.00010537150310359325  1.0000
  O   O1        1.0  0.009336581177275163  0.004969409006550742  0.0002242921885411452  1.0000
  Ca  Ca1       1.0  0.008019666092831529  0.0021415789866190754  0.999490886136419  1.0000
  Ca  Ca2       1.0  0.0006634187977684744  0.002801411651620539  0.0  1.0000
  Ca  Ca3       1.0  0.002231735751527516  0.0006945964293382087  0.9992974812754057  1.0000
  Ca  Ca4       1.0  0.006545642942093998  0.004273073339160376  0.9991738011280858  1.0000
  Ca  Ca5       1.0  0.006682906263494183  0.004305403573851467  0.9998011711540368  1.0000
  Ca  Ca6       1.0  0.002231735751527516  0.0006945964293382087  0.9996842907020886  1.0000
  Zn  Zn1       1.0  0.004445667911322914  0.003748079581467604  0.999490886136419  1.0000
  Zn  Zn2       1.0  0.004259952366667095  0.0011986022310418582  0.9999669829498762  1.0000
  Ca  Ca7       1.0  0.008019666092831529  0.007141578902483667  0.999490886136419  1.0000
  Ca  Ca8       1.0  0.0006634187977684744  0.00780141187598163  0.0  1.0000
  Ca  Ca9       1.0  0.002231735751527516  0.005694596765879845  0.9992974812754057  1.0000
  Ca  Ca10      1.0  0.006545642942093998  0.009273073563521467  0.9991738011280858  1.0000
  Ca  Ca11      1.0  0.006682906263494183  0.009305403349490374  0.9998011711540368  1.0000
  Ca  Ca12      1.0  0.002231735751527516  0.005694596765879845  0.9996842907020886  1.0000
  Zn  Zn3       1.0  0.004445667911322914  0.008748079805828694  0.999490886136419  1.0000
  Zn  Zn4       1.0  0.004259952366667095  0.006198602301154699  0.9999669829498762  1.0000
