data_image0
_chemical_formula_structural       HAl4Pt4Al4Pt4
_chemical_formula_sum              "H1 Al8 Pt8"
_cell_length_a       4.9421772956848145
_cell_length_b       4.9421772956848145
_cell_length_c       104.5952377319336
_cell_angle_alpha    90.0
_cell_angle_beta     90.0
_cell_angle_gamma    90.0

_space_group_name_H-M_alt    "P 1"
_space_group_IT_number       1

loop_
  _space_group_symop_operation_xyz
  'x, y, z'

loop_
  _atom_site_type_symbol
  _atom_site_label
  _atom_site_symmetry_multiplicity
  _atom_site_fract_x
  _atom_site_fract_y
  _atom_site_fract_z
  _atom_site_occupancy
  H   H1        1.0  0.003056739406287638  0.006408827503881762  0.00013165989028635384  1.0000
  Al  Al1       1.0  0.008445569343596703  0.008593757763883766  0.9994010717001895  1.0000
  Al  Al2       1.0  0.0015652330755293769  0.0035937582010733375  0.9993122248237117  1.0000
  Al  Al3       1.0  0.006565232826783587  0.0017134220611477818  0.9991648191310781  1.0000
  Al  Al4       1.0  0.003445569027011152  0.006713422000845772  0.9995484771078931  1.0000
  Pt  Pt1       1.0  0.0015540705139562008  0.0017022594053527152  0.9995479499873701  1.0000
  Pt  Pt2       1.0  0.008456731999391771  0.006702259345050705  0.9991653465365312  1.0000
  Pt  Pt3       1.0  0.0034567316828062185  0.008604920419678834  0.9993116974182588  1.0000
  Pt  Pt4       1.0  0.006554070924763643  0.0036049204799808426  0.9994015991056425  1.0000
  Al  Al5       1.0  0.008272847050609404  0.008625931147454623  0.999882782072324  1.0000
  Al  Al6       1.0  0.0015432683511136624  0.00350116295742572  0.9997820359486669  1.0000
  Al  Al7       1.0  0.006565232826783587  0.0017134220611477818  0.9996373239843709  1.0000
  Al  Al8       1.0  0.003056739406287638  0.006408827503881762  1.3867543705255046e-05  1.0000
  Pt  Pt5       1.0  0.0017292029086770926  0.0013740692972726994  0.0  1.0000
  Pt  Pt6       1.0  0.008456731999391771  0.006702259345050705  0.9996378516747538  1.0000
  Pt  Pt7       1.0  0.0034969097812947414  0.008487308133477197  0.9997774143838651  1.0000
  Pt  Pt8       1.0  0.006590938066024816  0.0036599927980103617  0.9998778191613673  1.0000
