data_image0
_chemical_formula_structural       Pt12Si4H
_chemical_formula_sum              "Pt12 Si4 H1"
_cell_length_a       5.465289996659149
_cell_length_b       5.561720013803738
_cell_length_c       32.94921112060547
_cell_angle_alpha    94.26123595601932
_cell_angle_beta     93.15232542487199
_cell_angle_gamma    61.31671524370346

_space_group_name_H-M_alt    "P 1"
_space_group_IT_number       1

loop_
  _space_group_symop_operation_xyz
  'x, y, z'

loop_
  _atom_site_type_symbol
  _atom_site_label
  _atom_site_symmetry_multiplicity
  _atom_site_fract_x
  _atom_site_fract_y
  _atom_site_fract_z
  _atom_site_occupancy
  Pt  Pt1       1.0  0.0004581259053891309  0.004984072812012156  0.00012020965256650088  1.0000
  Pt  Pt2       1.0  0.006718329492119351  0.0013305093565108665  0.9987050335691973  1.0000
  Pt  Pt3       1.0  0.009541874091491036  0.005118711630077859  0.9980700290806862  1.0000
  Pt  Pt4       1.0  0.0034779719896252535  0.008896603994264545  0.9994961179763164  1.0000
  Pt  Pt5       1.0  0.007408041905383718  0.008813142149474169  0.997425438336539  1.0000
  Pt  Pt6       1.0  0.0011580416855385568  0.0025631425317970274  0.9988310402849756  1.0000
  Pt  Pt7       1.0  0.005102161825695557  0.003886078645953128  0.9979440223304656  1.0000
  Pt  Pt8       1.0  0.008926098403455275  0.007646015981707228  0.9993531582989147  1.0000
  Pt  Pt9       1.0  0.004710165296920089  0.0035249869398511326  0.9994660220371242  1.0000
  Pt  Pt10      1.0  0.000854269725995343  0.009578569335626863  0.9980830307431139  1.0000
  Pt  Pt11      1.0  0.009380756089437094  0.00042143052100206515  9.0632553945115e-05  1.0000
  Pt  Pt12      1.0  0.005405933841245497  0.006870651459800434  0.9986920318589981  1.0000
  Si  Si1       1.0  0.009110741637856308  0.0033099658876252183  0.9995144180865959  1.0000
  Si  Si2       1.0  0.0052073372798176875  0.00956594809340178  0.998085869308324  1.0000
  Si  Si3       1.0  0.004817050759867762  0.0010741638866697172  5.741030752231977e-05  1.0000
  Si  Si4       1.0  0.0010528662573289196  0.006883273466671234  0.9986891933031038  1.0000
  H   H1        1.0  0.001968049381693346  0.006940338211976921  0.00026340993832078244  1.0000
