data_image0
_chemical_formula_structural       HAu3Pd6Zn3
_chemical_formula_sum              "H1 Au3 Pd6 Zn3"
_cell_length_a       4.510096073150635
_cell_length_b       4.510096097902064
_cell_length_c       103.14230346679688
_cell_angle_alpha    90.0
_cell_angle_beta     90.0
_cell_angle_gamma    119.99999981845825

_space_group_name_H-M_alt    "P 1"
_space_group_IT_number       1

loop_
  _space_group_symop_operation_xyz
  'x, y, z'

loop_
  _atom_site_type_symbol
  _atom_site_label
  _atom_site_symmetry_multiplicity
  _atom_site_fract_x
  _atom_site_fract_y
  _atom_site_fract_z
  _atom_site_occupancy
  H   H1        1.0  0.006666670153082318  0.004999997997082837  0.000159154832270982  1.0000
  Au  Au1       1.0  5.554777111347476e-09  0.0016666648068150154  0.99946362565452  1.0000
  Au  Au2       1.0  0.0066666722180551245  0.004999997997082837  0.9991065966626731  1.0000
  Au  Au3       1.0  0.0033333382938389795  0.008333335240873489  0.9998244158269638  1.0000
  Pd  Pd1       1.0  0.0033333457354201568  0.008333323795632558  7.940636144444278e-05  1.0000
  Pd  Pd2       1.0  5.554777111347476e-09  0.0016666648068150154  0.9997313973261692  1.0000
  Pd  Pd3       1.0  0.0066666722180551245  0.004999997997082837  0.9993743683343224  1.0000
  Pd  Pd4       1.0  0.006666662834428864  0.00500000896543873  0.9999146419755045  1.0000
  Pd  Pd5       1.0  0.003333338812641873  0.00833333142579318  0.9995528826857739  1.0000
  Pd  Pd6       1.0  5.554777111347476e-09  0.0016666648068150154  0.9991958539828707  1.0000
  Zn  Zn1       1.0  0.003333338812641873  0.00833333142579318  0.9992851110141246  1.0000
  Zn  Zn2       1.0  0.009999994054501278  0.0016666721985331171  0.0  1.0000
  Zn  Zn3       1.0  0.0066666722180551245  0.004999997997082837  0.9996421397170279  1.0000
