data_image0
_chemical_formula_structural       HAg6As6Se12Ag6As6Se12
_chemical_formula_sum              "H1 Ag12 As12 Se24"
_cell_length_a       6.8650431632995605
_cell_length_b       20.312613358560164
_cell_length_c       101.7082748413086
_cell_angle_alpha    101.25212911716838
_cell_angle_beta     90.0
_cell_angle_gamma    90.0

_space_group_name_H-M_alt    "P 1"
_space_group_IT_number       1

loop_
  _space_group_symop_operation_xyz
  'x, y, z'

loop_
  _atom_site_type_symbol
  _atom_site_label
  _atom_site_symmetry_multiplicity
  _atom_site_fract_x
  _atom_site_fract_y
  _atom_site_fract_z
  _atom_site_occupancy
  H   H1        1.0  0.002867255703585994  0.0001956825553110189  0.00015356606225128605  1.0000
  Ag  Ag1       1.0  0.0033791887693017985  0.008350724260149784  0.9996707959564178  1.0000
  Ag  Ag2       1.0  0.008379188791007651  0.008350724260149784  0.9994759476989739  1.0000
  Ag  Ag3       1.0  0.005045855262321648  0.005017390817114335  0.9997357454181737  1.0000
  Ag  Ag4       1.0  4.5855448347584265e-05  0.005017390817114335  0.9995408971607296  1.0000
  Ag  Ag5       1.0  0.0017125221406203734  0.0016840573740788851  0.9996058466224854  1.0000
  Ag  Ag6       1.0  0.006712522297987801  0.0016840573740788851  0.9994109983650413  1.0000
  As  As1       1.0  4.5855448347584265e-05  1.739065110028375e-05  0.9997357451890106  1.0000
  As  As2       1.0  0.005045855262321648  1.739065110028375e-05  0.9995408972245843  1.0000
  As  As3       1.0  0.0017125221406203734  0.006684057912616544  0.9994109983157037  1.0000
  As  As4       1.0  0.006712522297987801  0.006684057912616544  0.9996058465731478  1.0000
  As  As5       1.0  0.0033791887693017985  0.00335072409559661  0.9994759477628855  1.0000
  As  As6       1.0  0.008379188791007651  0.00335072409559661  0.9996707960203295  1.0000
  Se  Se1       1.0  4.5855448347584265e-05  0.00747075297713192  0.9996365037945751  1.0000
  Se  Se2       1.0  0.005045855262321648  0.00747075297713192  0.9994416555371312  1.0000
  Se  Se3       1.0  0.0017125221406203734  0.009230695543167647  0.9995102398608166  1.0000
  Se  Se4       1.0  0.006712522297987801  0.009230695543167647  0.9997050881182605  1.0000
  Se  Se5       1.0  0.0017125221406203734  0.004137419534096471  0.999701453256331  1.0000
  Se  Se6       1.0  0.006712522297987801  0.004137419534096471  0.9995066049988869  1.0000
  Se  Se7       1.0  0.0033791887693017985  0.005897362100132198  0.9995751893225723  1.0000
  Se  Se8       1.0  0.008379188791007651  0.005897362100132198  0.9993803410651283  1.0000
  Se  Se9       1.0  0.0033791887693017985  0.0008040860910610217  0.9993767062031986  1.0000
  Se  Se10      1.0  0.008379188791007651  0.0008040860910610217  0.9995715544606427  1.0000
  Se  Se11      1.0  4.5855448347584265e-05  0.002564028657096749  0.999445290526884  1.0000
  Se  Se12      1.0  0.005045855262321648  0.002564028657096749  0.9996401387843281  1.0000
  Ag  Ag7       1.0  0.0032208841910131656  0.008272389469812786  3.651334951716491e-05  1.0000
  Ag  Ag8       1.0  0.008480597989628283  0.008377914428185022  0.9998673220721493  1.0000
  Ag  Ag9       1.0  0.004021505904356444  0.004733883650207296  3.270277745817546e-05  1.0000
  Ag  Ag10      1.0  0.00028622594912354894  0.005164678996969063  0.9999442446268347  1.0000
  Ag  Ag11      1.0  0.002349026312806404  0.0016112046353228813  2.6405813653675017e-05  1.0000
  Ag  Ag12      1.0  0.006712522297987801  0.0016840573740788851  0.9998006945869118  1.0000
  As  As7       1.0  0.0002265520508027727  6.946585344602948e-05  0.00013453336769501159  1.0000
  As  As8       1.0  0.005507959288538427  0.009982610050529672  0.9999236524154608  1.0000
  As  As9       1.0  0.0017125221406203734  0.006684057912616544  0.9998006948305918  1.0000
  As  As10      1.0  0.0070750990229657635  0.006664194848621612  0.9999756634000647  1.0000
  As  As11      1.0  0.003636947391578226  0.00318018530027711  0.99990410470484  1.0000
  As  As12      1.0  0.009126456705785126  0.0034497312523552046  7.631647806156453e-05  1.0000
  Se  Se13      1.0  0.009954144260149603  0.007479044213175896  9.049892815375e-06  1.0000
  Se  Se14      1.0  0.005182333520976083  0.007414733841045895  0.9998580095644367  1.0000
  Se  Se15      1.0  0.0024164872873338747  0.009348451290154325  0.9999455257728712  1.0000
  Se  Se16      1.0  0.0073874663133856894  0.009356033451613757  9.473605341023437e-05  1.0000
  Se  Se17      1.0  0.002354057729335872  0.0038505633361216023  0.0001500550570866483  1.0000
  Se  Se18      1.0  0.007670867144105117  0.004275539110304193  0.9999578370120766  1.0000
  Se  Se19      1.0  0.0034526595516446122  0.005875500089062162  0.999951689341117  1.0000
  Se  Se20      1.0  0.008379188791007651  0.005897362100132198  0.9997700375800164  1.0000
  Se  Se21      1.0  0.0033791887693017985  0.0008040860910610217  0.9997664024250691  1.0000
  Se  Se22      1.0  0.009183240300314529  0.0009549758350074275  2.8448559189568554e-05  1.0000
  Se  Se23      1.0  0.00033797826278505946  0.0026231587831255713  0.9998706036219469  1.0000
  Se  Se24      1.0  0.005328214754783952  0.002383057190569186  1.9000634611604306e-05  1.0000
