data_image0
_chemical_formula_structural       HPt12V4
_chemical_formula_sum              "H1 Pt12 V4"
_cell_length_a       4.839169329834328
_cell_length_b       5.515091419219971
_cell_length_c       106.26883697509766
_cell_angle_alpha    90.0
_cell_angle_beta     91.4943840452961
_cell_angle_gamma    90.0

_space_group_name_H-M_alt    "P 1"
_space_group_IT_number       1

loop_
  _space_group_symop_operation_xyz
  'x, y, z'

loop_
  _atom_site_type_symbol
  _atom_site_label
  _atom_site_symmetry_multiplicity
  _atom_site_fract_x
  _atom_site_fract_y
  _atom_site_fract_z
  _atom_site_occupancy
  H   H1        1.0  0.0028627781453431055  0.0025588626976539392  0.00011928145734088597  1.0000
  Pt  Pt1       1.0  0.009100341434695755  0.0025000003715096464  0.9995779926421203  1.0000
  Pt  Pt2       1.0  0.005968380508440494  0.007497852944431451  0.9997887524852924  1.0000
  Pt  Pt3       1.0  0.0022253417119253165  0.007500000945660918  0.9993646840385638  1.0000
  Pt  Pt4       1.0  0.002769403763675919  0.0025588626976539392  3.288830707752187e-06  1.0000
  Pt  Pt5       1.0  0.009100341434695755  0.007500000945660918  0.9995779926421203  1.0000
  Pt  Pt6       1.0  0.005968380508440494  0.0025021466840589018  0.9997887524852924  1.0000
  Pt  Pt7       1.0  0.0022253417119253165  0.0025000003715096464  0.9993646840385638  1.0000
  Pt  Pt8       1.0  0.0027694018384706314  0.007441137606308499  3.2888284214570817e-06  1.0000
  Pt  Pt9       1.0  0.004100341496302324  0.005000000405283251  0.9995779923799796  1.0000
  Pt  Pt10      1.0  0.0009657359155431107  0.010000000135094417  0.9997924817751583  1.0000
  Pt  Pt11      1.0  0.007225341650318747  3.5000002894062287e-10  0.9993646840202619  1.0000
  Pt  Pt12      1.0  0.007915059536095633  0.005000000067547208  9.41137976406249e-06  1.0000
  V   V1        1.0  0.007225341650318747  0.005000000405283251  0.9993646840202619  1.0000
  V   V2        1.0  0.004100341496302324  3.5000002894062287e-10  0.9995779923799796  1.0000
  V   V3        1.0  0.0077744979877815935  0.009999999459622332  0.9999847803138078  1.0000
  V   V4        1.0  0.000899658345830842  0.004999999392075124  0.9998041594632342  1.0000
