data_image0
_chemical_formula_structural       COGa3Ni2Ga3Ni2Ga3Ni2Ga3Ni2Ga3Ni2Ga3Ni2Ga3Ni2Ga3Ni2
_chemical_formula_sum              "C1 O1 Ga24 Ni16"
_cell_length_a       8.214651606451772
_cell_length_b       8.214651107788086
_cell_length_c       104.77406311035156
_cell_angle_alpha    90.0
_cell_angle_beta     90.0
_cell_angle_gamma    119.99999799192193

_space_group_name_H-M_alt    "P 1"
_space_group_IT_number       1

loop_
  _space_group_symop_operation_xyz
  'x, y, z'

loop_
  _atom_site_type_symbol
  _atom_site_label
  _atom_site_symmetry_multiplicity
  _atom_site_fract_x
  _atom_site_fract_y
  _atom_site_fract_z
  _atom_site_occupancy
  C   C1        1.0  0.0008333333534065474  0.0025000000705023974  0.00011343501059423084  1.0000
  O   O1        1.0  0.0008333333534065474  0.0025000000705023974  0.0002279668361034843  1.0000
  Ga  Ga1       1.0  0.0024999998638512433  0.0008333332304911252  0.999896243470811  1.0000
  Ga  Ga2       1.0  0.004166666439752072  0.00416666661367516  0.9997638707674231  1.0000
  Ga  Ga3       1.0  0.0008333333534065474  0.0025000000705023974  0.9995929889378797  1.0000
  Ni  Ni1       1.0  0.0024999998638512433  0.0008333332304911252  0.9996601142382341  1.0000
  Ni  Ni2       1.0  0.004166666439752072  0.00416666661367516  0.0  1.0000
  Ga  Ga4       1.0  0.0024999998638512433  0.0008333332304911252  0.9994221068238927  1.0000
  Ga  Ga5       1.0  0.004166666439752072  0.00416666661367516  0.9992897338360611  1.0000
  Ga  Ga6       1.0  0.0008333333534065474  0.0025000000705023974  0.9991188520065177  1.0000
  Ni  Ni3       1.0  0.0024999998638512433  0.0008333332304911252  0.9991859773068721  1.0000
  Ni  Ni4       1.0  0.004166666439752072  0.00416666661367516  0.9995258636375254  1.0000
  Ga  Ga7       1.0  0.0024999998638512433  0.005833333307585008  0.999896243470811  1.0000
  Ga  Ga8       1.0  0.004166666439752072  0.009166667030889114  0.9997638707674231  1.0000
  Ga  Ga9       1.0  0.0008333333534065474  0.007500000487716352  0.9995929889378797  1.0000
  Ni  Ni5       1.0  0.0024999998638512433  0.005833333307585008  0.9996601142382341  1.0000
  Ni  Ni6       1.0  0.004166666439752072  0.009166667030889114  0.0  1.0000
  Ga  Ga10      1.0  0.0024999998638512433  0.005833333307585008  0.9994221068238927  1.0000
  Ga  Ga11      1.0  0.004166666439752072  0.009166667030889114  0.9992897338360611  1.0000
  Ga  Ga12      1.0  0.0008333333534065474  0.007500000487716352  0.9991188520065177  1.0000
  Ni  Ni7       1.0  0.0024999998638512433  0.005833333307585008  0.9991859773068721  1.0000
  Ni  Ni8       1.0  0.004166666439752072  0.009166667030889114  0.9995258636375254  1.0000
  Ga  Ga13      1.0  0.0074999998533782615  0.0008333331300210144  0.999896243470811  1.0000
  Ga  Ga14      1.0  0.00916666642927909  0.004166666541548388  0.9997638707674231  1.0000
  Ga  Ga15      1.0  0.005833333277477433  0.0024999999089608807  0.9995929889378797  1.0000
  Ni  Ni9       1.0  0.0074999998533782615  0.0008333331300210144  0.9996601142382341  1.0000
  Ni  Ni10      1.0  0.00916666642927909  0.004166666541548388  0.0  1.0000
  Ga  Ga16      1.0  0.0074999998533782615  0.0008333331300210144  0.9994221068238927  1.0000
  Ga  Ga17      1.0  0.00916666642927909  0.004166666541548388  0.9992897338360611  1.0000
  Ga  Ga18      1.0  0.005833333277477433  0.0024999999089608807  0.9991188520065177  1.0000
  Ni  Ni11      1.0  0.0074999998533782615  0.0008333331300210144  0.9991859773068721  1.0000
  Ni  Ni12      1.0  0.00916666642927909  0.004166666541548388  0.9995258636375254  1.0000
  Ga  Ga19      1.0  0.0074999998533782615  0.005833333320488254  0.999896243470811  1.0000
  Ga  Ga20      1.0  0.00916666642927909  0.009166666590298932  0.9997638707674231  1.0000
  Ga  Ga21      1.0  0.005833333277477433  0.007500000014398103  0.9995929889378797  1.0000
  Ni  Ni13      1.0  0.0074999998533782615  0.005833333320488254  0.9996601142382341  1.0000
  Ni  Ni14      1.0  0.00916666642927909  0.009166666590298932  0.0  1.0000
  Ga  Ga22      1.0  0.0074999998533782615  0.005833333320488254  0.9994221068238927  1.0000
  Ga  Ga23      1.0  0.00916666642927909  0.009166666590298932  0.9992897338360611  1.0000
  Ga  Ga24      1.0  0.005833333277477433  0.007500000014398103  0.9991188520065177  1.0000
  Ni  Ni15      1.0  0.0074999998533782615  0.005833333320488254  0.9991859773068721  1.0000
  Ni  Ni16      1.0  0.00916666642927909  0.009166666590298932  0.9995258636375254  1.0000
