data_image0
_chemical_formula_structural       COCo8As16
_chemical_formula_sum              "C1 O1 Co8 As16"
_cell_length_a       8.641386574565265
_cell_length_b       6.0344228072830415
_cell_length_c       103.87586212158203
_cell_angle_alpha    109.11122823149186
_cell_angle_beta     102.32930085013189
_cell_angle_gamma    67.82442208532854

_space_group_name_H-M_alt    "P 1"
_space_group_IT_number       1

loop_
  _space_group_symop_operation_xyz
  'x, y, z'

loop_
  _atom_site_type_symbol
  _atom_site_label
  _atom_site_symmetry_multiplicity
  _atom_site_fract_x
  _atom_site_fract_y
  _atom_site_fract_z
  _atom_site_occupancy
  C   C1        1.0  0.008274183768542158  0.0027084391561688656  0.00019849190960660124  1.0000
  O   O1        1.0  0.008274183768542158  0.0027084391561688656  0.00031401465063232264  1.0000
  Co  Co1       1.0  0.008181039785702981  0.001770888943868432  0.9996312107154074  1.0000
  Co  Co2       1.0  0.005681039748261926  0.009270889903160242  0.9994273866599396  1.0000
  Co  Co3       1.0  0.0006810394978748757  0.00427088947785536  0.9998350348623558  1.0000
  Co  Co4       1.0  0.0028959291243987116  0.0068471633372933355  2.7966667751049712e-05  1.0000
  Co  Co5       1.0  0.008050481893326423  0.0018294993806565244  2.108355363192976e-05  1.0000
  Co  Co6       1.0  0.005681039748261926  0.009270889903160242  0.9998350351503198  1.0000
  Co  Co7       1.0  0.0006810394978748757  0.00427088947785536  0.9994273866588788  1.0000
  Co  Co8       1.0  0.0031810394768142826  0.006770889435975983  0.9996312107537085  1.0000
  As  As1       1.0  0.005890447096958433  0.005004745927641358  0.9997410580987112  1.0000
  As  As2       1.0  0.0033904468255107887  0.0025047457871318303  0.9995372339952163  1.0000
  As  As3       1.0  0.00843465799933217  0.0075042782735915674  0.9999555309797734  1.0000
  As  As4       1.0  0.000830010023232324  0.0007291108308600365  0.0001311505519194051  1.0000
  As  As5       1.0  0.0004716320029242512  0.008537032872167696  0.9995213636968351  1.0000
  As  As6       1.0  0.00754378321321045  0.006204336126194336  0.00012768978278583952  1.0000
  As  As7       1.0  0.0029716321281177765  0.001037032686276964  0.9997251877685716  1.0000
  As  As8       1.0  0.005312237875178834  0.003613923694134032  0.9999309391460345  1.0000
  As  As9       1.0  0.009528368293094084  0.0013668244396120206  0.9998521079869739  1.0000
  As  As10      1.0  0.00702836825565303  0.008866825398903828  0.9996482836446028  1.0000
  As  As11      1.0  0.002141871906919622  0.003629747596049316  6.40672581494266e-05  1.0000
  As  As12      1.0  0.004528368218211976  0.006366824816290911  0.9994444595368561  1.0000
  As  As13      1.0  0.009333711315752932  0.004674953377388301  0.9996141378260642  1.0000
  As  As14      1.0  0.006833710810298699  0.002174953678982163  0.9994103137268214  1.0000
  As  As15      1.0  0.001833710969423179  0.007174953940232394  0.9998179619725224  1.0000
  As  As16      1.0  0.004528398639068596  0.00921323061691668  2.5834248260259586e-05  1.0000
