data_image0
_chemical_formula_structural       HV6Ga2V6Ga2
_chemical_formula_sum              "H1 V12 Ga4"
_cell_length_a       4.802628517150879
_cell_length_b       4.802628517150879
_cell_length_c       103.61840057373047
_cell_angle_alpha    90.0
_cell_angle_beta     90.0
_cell_angle_gamma    90.0

_space_group_name_H-M_alt    "P 1"
_space_group_IT_number       1

loop_
  _space_group_symop_operation_xyz
  'x, y, z'

loop_
  _atom_site_type_symbol
  _atom_site_label
  _atom_site_symmetry_multiplicity
  _atom_site_fract_x
  _atom_site_fract_y
  _atom_site_fract_z
  _atom_site_occupancy
  H   H1        1.0  0.0012435095428050798  0.009999976915841214  0.00014887815723348374  1.0000
  V   V1        1.0  0.003743228212376644  2.3550000656261546e-08  0.9993219806602687  1.0000
  V   V2        1.0  0.00874322830545793  2.3550000656261546e-08  0.9993219806602687  1.0000
  V   V3        1.0  0.0012432279719166565  0.005000023751241332  0.9992061076033296  1.0000
  V   V4        1.0  0.0012432279719166565  0.005000023751241332  0.9994378534295917  1.0000
  V   V5        1.0  0.006243228258917287  0.0025000237047006894  0.9995537267741469  1.0000
  V   V6        1.0  0.006243228258917287  0.007500023797781975  0.9995537267741469  1.0000
  Ga  Ga1       1.0  0.006243228258917287  0.005000023751241332  0.9993219806602687  1.0000
  Ga  Ga2       1.0  0.0012432279719166565  2.3550000656261546e-08  0.9995537267741469  1.0000
  V   V7        1.0  0.003729808993727265  2.995000183978039e-08  0.9997912269361323  1.0000
  V   V8        1.0  0.00875677240816526  2.975000180279543e-08  0.9997912252104356  1.0000
  V   V9        1.0  0.0012432279719166565  0.005000023751241332  0.9996695992558539  1.0000
  V   V10       1.0  0.0012437084070930123  0.0049999725565343465  0.9999094498167761  1.0000
  V   V11       1.0  0.006242871447323142  0.0024430081207464337  0.9999999994247678  1.0000
  V   V12       1.0  0.006242871059484452  0.007557083401427465  0.0  1.0000
  Ga  Ga3       1.0  0.006242653094141072  0.005000038489111525  0.9997796406083332  1.0000
  Ga  Ga4       1.0  0.0012435095428050798  0.009999976915841214  2.9975352080787122e-05  1.0000
