data_image0
_chemical_formula_structural       HAl4Cu8Mn4Al4Cu8Mn4Al4Cu8Mn4Al4Cu8Mn4
_chemical_formula_sum              "H1 Al16 Cu32 Mn16"
_cell_length_a       8.301340103149414
_cell_length_b       8.301340103149414
_cell_length_c       105.2196044921875
_cell_angle_alpha    90.0
_cell_angle_beta     90.0
_cell_angle_gamma    90.0

_space_group_name_H-M_alt    "P 1"
_space_group_IT_number       1

loop_
  _space_group_symop_operation_xyz
  'x, y, z'

loop_
  _atom_site_type_symbol
  _atom_site_label
  _atom_site_symmetry_multiplicity
  _atom_site_fract_x
  _atom_site_fract_y
  _atom_site_fract_z
  _atom_site_occupancy
  H   H1        1.0  0.0062499938968952696  0.004999999515341683  0.00011708884210269862  1.0000
  Al  Al1       1.0  0.001250007058958634  0.009999996338137161  0.9998622471548095  1.0000
  Al  Al2       1.0  0.003749999973074538  0.0025000006551862434  0.9995825478240192  1.0000
  Al  Al3       1.0  0.001249999991024846  6.499999752074353e-10  0.999303610690064  1.0000
  Al  Al4       1.0  0.003749999973074538  0.0025000006551862434  0.9990246732728696  1.0000
  Cu  Cu1       1.0  0.0012500087418000122  0.0025000073865517557  0.0  1.0000
  Cu  Cu2       1.0  0.003749993914845577  0.009999999030683366  0.9999999960346504  1.0000
  Cu  Cu3       1.0  0.003749995934255231  0.009999996338137161  0.9997212268615735  1.0000
  Cu  Cu4       1.0  0.0012500008885402477  0.0025000132204018666  0.9997212251621379  1.0000
  Cu  Cu5       1.0  0.001249999991024846  0.0025000006551862434  0.999443079115422  1.0000
  Cu  Cu6       1.0  0.003749999973074538  6.499999752074353e-10  0.999443079115422  1.0000
  Cu  Cu7       1.0  0.003749999973074538  6.499999752074353e-10  0.9991641419814667  1.0000
  Cu  Cu8       1.0  0.001249999991024846  0.0025000006551862434  0.9991641419814667  1.0000
  Mn  Mn1       1.0  0.001249999991024846  6.499999752074353e-10  0.9995825478240192  1.0000
  Mn  Mn2       1.0  0.0037499934660878763  0.0024999945969572824  0.9998637047040158  1.0000
  Mn  Mn3       1.0  0.001249999991024846  6.499999752074353e-10  0.9990246732728696  1.0000
  Mn  Mn4       1.0  0.003749999973074538  0.0025000006551862434  0.999303610690064  1.0000
  Al  Al5       1.0  0.001250007058958634  0.004999995925280077  0.9998622471548095  1.0000
  Al  Al6       1.0  0.003749999973074538  0.007500000394906777  0.9995825478240192  1.0000
  Al  Al7       1.0  0.001249999991024846  0.005000000412857085  0.999303610690064  1.0000
  Al  Al8       1.0  0.003749999973074538  0.007500000394906777  0.9990246732728696  1.0000
  Cu  Cu9       1.0  0.0012500087418000122  0.00750000757502999  0.0  1.0000
  Cu  Cu10      1.0  0.003749993914845577  0.004999999515341683  0.9999999960346504  1.0000
  Cu  Cu11      1.0  0.003749995934255231  0.004999996822795478  0.9997212268615735  1.0000
  Cu  Cu12      1.0  0.0012500008885402477  0.0075000134088801015  0.9997212251621379  1.0000
  Cu  Cu13      1.0  0.001249999991024846  0.007500000394906777  0.999443079115422  1.0000
  Cu  Cu14      1.0  0.003749999973074538  0.005000000412857085  0.999443079115422  1.0000
  Cu  Cu15      1.0  0.003749999973074538  0.005000000412857085  0.9991641419814667  1.0000
  Cu  Cu16      1.0  0.001249999991024846  0.007500000394906777  0.9991641419814667  1.0000
  Mn  Mn5       1.0  0.001249999991024846  0.005000000412857085  0.9995825478240192  1.0000
  Mn  Mn6       1.0  0.0037499934660878763  0.007499994561056667  0.9998637047040158  1.0000
  Mn  Mn7       1.0  0.001249999991024846  0.005000000412857085  0.9990246732728696  1.0000
  Mn  Mn8       1.0  0.003749999973074538  0.007500000394906777  0.999303610690064  1.0000
  Al  Al9       1.0  0.006250006910868593  0.009999996338137161  0.9998622471548095  1.0000
  Al  Al10      1.0  0.008749999712795073  0.0025000006551862434  0.9995825478240192  1.0000
  Al  Al11      1.0  0.00624999973074538  6.499999752074353e-10  0.999303610690064  1.0000
  Al  Al12      1.0  0.008749999712795073  0.0025000006551862434  0.9990246732728696  1.0000
  Cu  Cu17      1.0  0.006250008705899397  0.0025000073865517557  0.0  1.0000
  Cu  Cu18      1.0  0.008749994327702662  0.009999999030683366  0.9999999960346504  1.0000
  Cu  Cu19      1.0  0.008749996122733465  0.009999996338137161  0.9997212268615735  1.0000
  Cu  Cu20      1.0  0.006250000628260781  0.0025000132204018666  0.9997212251621379  1.0000
  Cu  Cu21      1.0  0.00624999973074538  0.0025000006551862434  0.999443079115422  1.0000
  Cu  Cu22      1.0  0.008749999712795073  6.499999752074353e-10  0.999443079115422  1.0000
  Cu  Cu23      1.0  0.008749999712795073  6.499999752074353e-10  0.9991641419814667  1.0000
  Cu  Cu24      1.0  0.00624999973074538  0.0025000006551862434  0.9991641419814667  1.0000
  Mn  Mn9       1.0  0.00624999973074538  6.499999752074353e-10  0.9995825478240192  1.0000
  Mn  Mn10      1.0  0.00874999343018726  0.0024999945969572824  0.9998637047040158  1.0000
  Mn  Mn11      1.0  0.00624999973074538  6.499999752074353e-10  0.9990246732728696  1.0000
  Mn  Mn12      1.0  0.008749999712795073  0.0025000006551862434  0.999303610690064  1.0000
  Al  Al13      1.0  0.006250006910868593  0.004999995925280077  0.9998622471548095  1.0000
  Al  Al14      1.0  0.008749999712795073  0.007500000394906777  0.9995825478240192  1.0000
  Al  Al15      1.0  0.00624999973074538  0.005000000412857085  0.999303610690064  1.0000
  Al  Al16      1.0  0.008749999712795073  0.007500000394906777  0.9990246732728696  1.0000
  Cu  Cu25      1.0  0.006250008705899397  0.00750000757502999  0.0  1.0000
  Cu  Cu26      1.0  0.008749994327702662  0.004999999515341683  0.9999999960346504  1.0000
  Cu  Cu27      1.0  0.008749996122733465  0.004999996822795478  0.9997212268615735  1.0000
  Cu  Cu28      1.0  0.006250000628260781  0.0075000134088801015  0.9997212251621379  1.0000
  Cu  Cu29      1.0  0.00624999973074538  0.007500000394906777  0.999443079115422  1.0000
  Cu  Cu30      1.0  0.008749999712795073  0.005000000412857085  0.999443079115422  1.0000
  Cu  Cu31      1.0  0.008749999712795073  0.005000000412857085  0.9991641419814667  1.0000
  Cu  Cu32      1.0  0.00624999973074538  0.007500000394906777  0.9991641419814667  1.0000
  Mn  Mn13      1.0  0.00624999973074538  0.005000000412857085  0.9995825478240192  1.0000
  Mn  Mn14      1.0  0.00874999343018726  0.007499994561056667  0.9998637047040158  1.0000
  Mn  Mn15      1.0  0.00624999973074538  0.005000000412857085  0.9990246732728696  1.0000
  Mn  Mn16      1.0  0.008749999712795073  0.007500000394906777  0.999303610690064  1.0000
