data_image0
_chemical_formula_structural       CONa12Fe8Se16Na12Fe8Se16
_chemical_formula_sum              "C1 O1 Na24 Fe16 Se32"
_cell_length_a       11.009013175964355
_cell_length_b       10.592635154724121
_cell_length_c       104.09835052490234
_cell_angle_alpha    90.0
_cell_angle_beta     90.0
_cell_angle_gamma    90.0

_space_group_name_H-M_alt    "P 1"
_space_group_IT_number       1

loop_
  _space_group_symop_operation_xyz
  'x, y, z'

loop_
  _atom_site_type_symbol
  _atom_site_label
  _atom_site_symmetry_multiplicity
  _atom_site_fract_x
  _atom_site_fract_y
  _atom_site_fract_z
  _atom_site_occupancy
  C   C1        1.0  0.009281739335193901  0.009567741546168818  0.9999999066694424  1.0000
  O   O1        1.0  0.009281739335193901  0.009567741546168818  0.00011518250482488064  1.0000
  Na  Na1       1.0  0.007568159960201969  0.0024262580870527658  0.9993892786133762  1.0000
  Na  Na2       1.0  0.007440143315837342  0.0024262580870527658  0.9997168373786011  1.0000
  Na  Na3       1.0  0.0024401436068488616  0.007426258530178174  0.999486985400728  1.0000
  Na  Na4       1.0  0.002837606294732396  0.0074262557166835195  0.9998734483445527  1.0000
  Na  Na5       1.0  0.001414329522019074  0.004113107270875973  0.9994046678489362  1.0000
  Na  Na6       1.0  0.003689279593646349  0.0006530961625238371  0.9997392378575822  1.0000
  Na  Na7       1.0  0.0085939742142245  0.009113107538157965  0.9994715967377482  1.0000
  Na  Na8       1.0  0.006425399681447692  0.005600775628145318  0.9998226988518495  1.0000
  Na  Na9       1.0  0.0085939742142245  0.0057394088188247195  0.9994715967377482  1.0000
  Na  Na10      1.0  0.006424603122008402  0.009254957608288258  0.9998227257631146  1.0000
  Na  Na11      1.0  0.001414329522019074  0.0007394088153078508  0.9994046678489362  1.0000
  Na  Na12      1.0  0.003690921101649745  0.0041953165296277194  0.9997395544943819  1.0000
  Fe  Fe1       1.0  0.004716097499026966  0.003651816886198778  0.9994077861202038  1.0000
  Fe  Fe2       1.0  0.0002839023368560725  0.0011507609007668732  0.9997372332546245  1.0000
  Fe  Fe3       1.0  0.005292206237216609  0.008651816801793938  0.9994684778939005  1.0000
  Fe  Fe4       1.0  0.009709868038755393  0.006149669795887941  0.9997916884857859  1.0000
  Fe  Fe5       1.0  0.005292206237216609  0.006200699555188746  0.9994684778939005  1.0000
  Fe  Fe6       1.0  0.009710179353404564  0.00870322497612581  0.999791794985686  1.0000
  Fe  Fe7       1.0  0.004716097499026966  0.0012006991999850458  0.9994077861202038  1.0000
  Fe  Fe8       1.0  0.00028407745134623066  0.003701991343124535  0.9997371920288567  1.0000
  Se  Se1       1.0  0.005303849405095573  0.0024232223263202742  0.9998597321880681  1.0000
  Se  Se2       1.0  0.009613087758809133  0.0024262580870527658  0.9995604966704604  1.0000
  Se  Se3       1.0  0.004613088219013397  0.007426258530178174  0.9996433266814488  1.0000
  Se  Se4       1.0  0.0003361496484131464  0.007425387753582524  0.9999512075861056  1.0000
  Se  Se5       1.0  0.0014970686653240398  0.0024267022675213868  0.9998498007860966  1.0000
  Se  Se6       1.0  0.0032928359536606145  0.0024262580870527658  0.9995174558237498  1.0000
  Se  Se7       1.0  0.00829283549345635  0.007426258530178174  0.9996863675281594  1.0000
  Se  Se8       1.0  0.005396018505993744  0.007426266267288474  5.752769602046381e-05  1.0000
  Se  Se9       1.0  0.0043955239461279045  0.005515689571109074  0.9999999582016521  1.0000
  Se  Se10      1.0  0.0012347681389673077  0.009378088795106734  0.9996530439384599  1.0000
  Se  Se11      1.0  0.0062347681863412765  0.00047442738251566577  0.9995507794134493  1.0000
  Se  Se12      1.0  0.008850679536533375  0.004420156603276456  0.9998750687462581  1.0000
  Se  Se13      1.0  0.0062347681863412765  0.004378088527824742  0.9995507794134493  1.0000
  Se  Se14      1.0  0.00885329931698324  0.00043225854878662756  0.9998752462460915  1.0000
  Se  Se15      1.0  0.004395442056839753  0.009336780363211807  0.0  1.0000
  Se  Se16      1.0  0.0012347681389673077  0.00547442756187595  0.9996530439384599  1.0000
  Na  Na13      1.0  0.007568159960201969  0.0024262580870527658  0.9987341605103465  1.0000
  Na  Na14      1.0  0.007440143315837342  0.0024262580870527658  0.9990617195618613  1.0000
  Na  Na15      1.0  0.0024401436068488616  0.007426258530178174  0.9988318675839882  1.0000
  Na  Na16      1.0  0.0025681600820207443  0.007426258530178174  0.9991594266355032  1.0000
  Na  Na17      1.0  0.001414329522019074  0.004113107270875973  0.9987495497459064  1.0000
  Na  Na18      1.0  0.0035939743360432763  0.0007394088153078508  0.9990771087974213  1.0000
  Na  Na19      1.0  0.0085939742142245  0.009113107538157965  0.9988164783484283  1.0000
  Na  Na20      1.0  0.00641432906181481  0.0057394088188247195  0.9991440373999432  1.0000
  Na  Na21      1.0  0.0085939742142245  0.0057394088188247195  0.9988164783484283  1.0000
  Na  Na22      1.0  0.00641432906181481  0.009113107538157965  0.9991440373999432  1.0000
  Na  Na23      1.0  0.001414329522019074  0.0007394088153078508  0.9987495497459064  1.0000
  Na  Na24      1.0  0.0035939743360432763  0.004113107270875973  0.9990771087974213  1.0000
  Fe  Fe9       1.0  0.004716097499026966  0.003651816886198778  0.998752668303464  1.0000
  Fe  Fe10      1.0  0.0002922062321408261  0.0012006991999850458  0.9990802273549789  1.0000
  Fe  Fe11      1.0  0.005292206237216609  0.008651816801793938  0.9988133597908706  1.0000
  Fe  Fe12      1.0  0.00971609771559368  0.006200699555188746  0.9991409188423855  1.0000
  Fe  Fe13      1.0  0.005292206237216609  0.006200699555188746  0.9988133597908706  1.0000
  Fe  Fe14      1.0  0.00971609771559368  0.008651816801793938  0.9991409188423855  1.0000
  Fe  Fe15      1.0  0.004716097499026966  0.0012006991999850458  0.998752668303464  1.0000
  Fe  Fe16      1.0  0.0002922062321408261  0.003651816886198778  0.9990802273549789  1.0000
  Se  Se17      1.0  0.005395215517230178  0.0024262580870527658  0.9992329373326555  1.0000
  Se  Se18      1.0  0.009613087758809133  0.0024262580870527658  0.9989053785674306  1.0000
  Se  Se19      1.0  0.004613088219013397  0.007426258530178174  0.998988208578419  1.0000
  Se  Se20      1.0  0.0003952155544525813  0.007426258530178174  0.999315767916224  1.0000
  Se  Se21      1.0  0.0017154679044017358  0.0024262580870527658  0.999189897058525  1.0000
  Se  Se22      1.0  0.0032928359536606145  0.0024262580870527658  0.9988623380070101  1.0000
  Se  Se23      1.0  0.00829283549345635  0.007426258530178174  0.9990312491388396  1.0000
  Se  Se24      1.0  0.00671546778258296  0.007426258530178174  0.9993588081903544  1.0000
  Se  Se25      1.0  0.0037735355499022983  0.00547442756187595  0.999325484600655  1.0000
  Se  Se26      1.0  0.0012347681389673077  0.009378088795106734  0.99899792554914  1.0000
  Se  Se27      1.0  0.0062347681863412765  0.00047442738251566577  0.9988956615967095  1.0000
  Se  Se28      1.0  0.00877353576646901  0.004378088527824742  0.9992232203619343  1.0000
  Se  Se29      1.0  0.0062347681863412765  0.004378088527824742  0.9988956615967095  1.0000
  Se  Se30      1.0  0.00877353576646901  0.00047442738251566577  0.9992232203619343  1.0000
  Se  Se31      1.0  0.0037735355499022983  0.009378088795106734  0.999325484600655  1.0000
  Se  Se32      1.0  0.0012347681389673077  0.00547442756187595  0.99899792554914  1.0000
