data_image0
_chemical_formula_structural       COTiCuTiCuTiCuTiCuTiCuTiCuTiCuTiCuTiCuTiCuTiCuTiCu
_chemical_formula_sum              "C1 O1 Ti12 Cu12"
_cell_length_a       6.205102920532227
_cell_length_b       6.205102920532227
_cell_length_c       101.0255126953125
_cell_angle_alpha    90.0
_cell_angle_beta     90.0
_cell_angle_gamma    90.0

_space_group_name_H-M_alt    "P 1"
_space_group_IT_number       1

loop_
  _space_group_symop_operation_xyz
  'x, y, z'

loop_
  _atom_site_type_symbol
  _atom_site_label
  _atom_site_symmetry_multiplicity
  _atom_site_fract_x
  _atom_site_fract_y
  _atom_site_fract_z
  _atom_site_occupancy
  C   C1        1.0  0.0037499999279569027  0.0012499999759856342  0.0001714469272481546  1.0000
  O   O1        1.0  0.0037499999279569027  0.0012499999759856342  0.00029022904474046066  1.0000
  Ti  Ti1       1.0  0.0037499999279569027  0.0037499999279569027  0.9992322358917521  1.0000
  Cu  Cu1       1.0  0.0012499999759856342  0.0012499999759856342  0.999385788831401  1.0000
  Ti  Ti2       1.0  0.0037499999279569027  0.0037499999279569027  0.9995393414760517  1.0000
  Cu  Cu2       1.0  0.0012499999759856342  0.0012499999759856342  0.9996928944157004  1.0000
  Ti  Ti3       1.0  0.0037499999279569027  0.0037499999279569027  0.9998464470603512  1.0000
  Cu  Cu3       1.0  0.0012499999759856342  0.0012499999759856342  0.0  1.0000
  Ti  Ti4       1.0  0.0037499999279569027  0.00874999983189944  0.9992322358917521  1.0000
  Cu  Cu4       1.0  0.0012499999759856342  0.006249999879928171  0.999385788831401  1.0000
  Ti  Ti5       1.0  0.0037499999279569027  0.00874999983189944  0.9995393414760517  1.0000
  Cu  Cu5       1.0  0.0012499999759856342  0.006249999879928171  0.9996928944157004  1.0000
  Ti  Ti6       1.0  0.0037499999279569027  0.00874999983189944  0.9998464470603512  1.0000
  Cu  Cu6       1.0  0.0012499999759856342  0.006249999879928171  0.0  1.0000
  Ti  Ti7       1.0  0.00874999983189944  0.0037499999279569027  0.9992322358917521  1.0000
  Cu  Cu7       1.0  0.006249999879928171  0.0012499999759856342  0.999385788831401  1.0000
  Ti  Ti8       1.0  0.00874999983189944  0.0037499999279569027  0.9995393414760517  1.0000
  Cu  Cu8       1.0  0.006249999879928171  0.0012499999759856342  0.9996928944157004  1.0000
  Ti  Ti9       1.0  0.00874999983189944  0.0037499999279569027  0.9998464470603512  1.0000
  Cu  Cu9       1.0  0.006249999879928171  0.0012499999759856342  0.0  1.0000
  Ti  Ti10      1.0  0.00874999983189944  0.00874999983189944  0.9992322358917521  1.0000
  Cu  Cu10      1.0  0.006249999879928171  0.006249999879928171  0.999385788831401  1.0000
  Ti  Ti11      1.0  0.00874999983189944  0.00874999983189944  0.9995393414760517  1.0000
  Cu  Cu11      1.0  0.006249999879928171  0.006249999879928171  0.9996928944157004  1.0000
  Ti  Ti12      1.0  0.00874999983189944  0.00874999983189944  0.9998464470603512  1.0000
  Cu  Cu12      1.0  0.006249999879928171  0.006249999879928171  0.0  1.0000
