data_image0
_chemical_formula_structural       HV6Ni12V6Ni12
_chemical_formula_sum              "H1 V12 Ni24"
_cell_length_a       7.651440620422363
_cell_length_b       6.229338454330308
_cell_length_c       100.86117553710938
_cell_angle_alpha    89.85540976296622
_cell_angle_beta     90.0
_cell_angle_gamma    90.0

_space_group_name_H-M_alt    "P 1"
_space_group_IT_number       1

loop_
  _space_group_symop_operation_xyz
  'x, y, z'

loop_
  _atom_site_type_symbol
  _atom_site_label
  _atom_site_symmetry_multiplicity
  _atom_site_fract_x
  _atom_site_fract_y
  _atom_site_fract_z
  _atom_site_occupancy
  H   H1        1.0  0.009161210155292513  0.006691552358351625  5.647729155000282e-05  1.0000
  V   V1        1.0  0.0008287505464093631  0.003344878244148652  0.9994270872090453  1.0000
  V   V2        1.0  0.0008287505464093631  1.154495016974602e-05  0.999572790463678  1.0000
  V   V3        1.0  0.0008287505464093631  0.006678211609376669  0.9992813839544016  1.0000
  V   V4        1.0  0.0058287503589627325  0.003344878244148652  0.9992085323005864  1.0000
  V   V5        1.0  0.0058287503589627325  1.154495016974602e-05  0.9993542355552191  1.0000
  V   V6        1.0  0.0058287503589627325  0.006678211609376669  0.9994999385673818  1.0000
  Ni  Ni1       1.0  0.009149854297587834  0.003344878244148652  0.9992085323005864  1.0000
  Ni  Ni2       1.0  0.009149854297587834  1.154495016974602e-05  0.9993542355552191  1.0000
  Ni  Ni3       1.0  0.009149854297587834  0.006678211609376669  0.9994999385673818  1.0000
  Ni  Ni4       1.0  0.00750764653718748  0.003344878244148652  0.9994270872090453  1.0000
  Ni  Ni5       1.0  0.00750764653718748  1.154495016974602e-05  0.999572790463678  1.0000
  Ni  Ni6       1.0  0.00750764653718748  0.006678211609376669  0.9992813839544016  1.0000
  Ni  Ni7       1.0  0.0041498546676123505  0.003344878244148652  0.9994270872090453  1.0000
  Ni  Ni8       1.0  0.0041498546676123505  1.154495016974602e-05  0.999572790463678  1.0000
  Ni  Ni9       1.0  0.0041498546676123505  0.006678211609376669  0.9992813839544016  1.0000
  Ni  Ni10      1.0  0.002507646420337632  0.003344878244148652  0.9992085323005864  1.0000
  Ni  Ni11      1.0  0.002507646420337632  1.154495016974602e-05  0.9993542355552191  1.0000
  Ni  Ni12      1.0  0.002507646420337632  0.006678211609376669  0.9994999385673818  1.0000
  V   V7        1.0  0.0008287524330475301  0.0034312133664037825  0.999860665896659  1.0000
  V   V8        1.0  0.0008287529199218957  0.00978454711934358  0.9999892010912114  1.0000
  V   V9        1.0  0.0008287533459369657  0.006643507003651609  0.9997212808162301  1.0000
  V   V10       1.0  0.0058287503589627325  0.003344878244148652  0.9996456418220256  1.0000
  V   V11       1.0  0.00582875181958583  5.081415122297757e-05  0.9997882609552411  1.0000
  V   V12       1.0  0.005828747437716539  0.006585529046310162  0.9999262178774646  1.0000
  Ni  Ni13      1.0  0.009149854297587834  0.003344878244148652  0.9996456418220256  1.0000
  Ni  Ni14      1.0  0.009171249504712445  5.5717346855569435e-05  0.999790496373334  1.0000
  Ni  Ni15      1.0  0.009161210155292513  0.006698568989502923  0.9999343235577057  1.0000
  Ni  Ni16      1.0  0.00752194457668385  0.0033690773389698637  0.9998707892238504  1.0000
  Ni  Ni17      1.0  0.007465385842248094  0.009988440266130263  0.9999984432049027  1.0000
  Ni  Ni18      1.0  0.007499713893147763  0.006677872529016762  0.9997196402812689  1.0000
  Ni  Ni19      1.0  0.004135551759372324  0.0033690761429192116  0.9998707862692505  1.0000
  Ni  Ni20      1.0  0.004192117796923565  0.009988454618738091  0.9999984449755375  1.0000
  Ni  Ni21      1.0  0.004157788285400799  0.006677879705320675  0.9997196402801504  1.0000
  Ni  Ni22      1.0  0.002507646420337632  0.003344878244148652  0.9996456418220256  1.0000
  Ni  Ni23      1.0  0.0024862619244490638  5.571254863674194e-05  0.9997904969650391  1.0000
  Ni  Ni24      1.0  0.0024963017607433622  0.006698565401350966  0.9999343241492222  1.0000
