data_image0
_chemical_formula_structural       HTi3Ga15Co3Ti3Ga15Co3
_chemical_formula_sum              "H1 Ti6 Ga30 Co6"
_cell_length_a       9.185891012130368
_cell_length_b       6.577375888824463
_cell_length_c       104.8580093383789
_cell_angle_alpha    90.0
_cell_angle_beta     108.43494882292202
_cell_angle_gamma    90.0

_space_group_name_H-M_alt    "P 1"
_space_group_IT_number       1

loop_
  _space_group_symop_operation_xyz
  'x, y, z'

loop_
  _atom_site_type_symbol
  _atom_site_label
  _atom_site_symmetry_multiplicity
  _atom_site_fract_x
  _atom_site_fract_y
  _atom_site_fract_z
  _atom_site_occupancy
  H   H1        1.0  0.008230643838402541  0.005027833878036274  0.0002049104169633124  1.0000
  Ti  Ti1       1.0  0.007463506464399539  0.009999999456275763  0.9998959992131506  1.0000
  Ti  Ti2       1.0  0.004033707958503656  3.1000000821637874e-09  7.936211496980114e-05  1.0000
  Ti  Ti3       1.0  0.0008276768050495539  2.999999905274149e-10  0.9997353402628304  1.0000
  Ga  Ga1       1.0  0.005945268694235176  0.007059567101624307  3.502212392931973e-05  1.0000
  Ga  Ga2       1.0  0.0024836238666877436  0.00714136361652594  0.00019416753235255567  1.0000
  Ga  Ga3       1.0  0.009161009988764275  0.00702490977893115  0.9998276821458316  1.0000
  Ga  Ga4       1.0  0.0059452721140891744  0.0029404374520661776  3.5023355531920486e-05  1.0000
  Ga  Ga5       1.0  0.002483611683457876  0.0028586769022573037  0.00019416719484607374  1.0000
  Ga  Ga6       1.0  0.009161009988764275  0.00297509081010344  0.9998276821458316  1.0000
  Ga  Ga7       1.0  0.009258978546243593  0.007115230304006371  0.00012193294440126583  1.0000
  Ga  Ga8       1.0  0.005827677014515611  0.00702490977893115  0.999735340336845  1.0000
  Ga  Ga9       1.0  0.0024673199264933846  0.007009072111390682  0.9999179735022807  1.0000
  Ga  Ga10      1.0  0.009258969141645099  0.0028847569751120016  0.00012193268386994645  1.0000
  Ga  Ga11      1.0  0.005827677014515611  0.00297509081010344  0.999735340336845  1.0000
  Ga  Ga12      1.0  0.0024673220639021332  0.0029909341414380433  0.9999179735614924  1.0000
  Ga  Ga13      1.0  0.007599967188552802  0.00999998926144632  0.0002105384382095471  1.0000
  Ga  Ga14      1.0  0.004161010313650405  2.999999905274149e-10  0.99982768208662  1.0000
  Ga  Ga15      1.0  0.0007410214452067709  4.900000025328277e-09  1.7364856525148508e-05  1.0000
  Co  Co1       1.0  0.007505564683829846  0.004999999728137881  0.9999272031203287  1.0000
  Co  Co2       1.0  0.004039087816324183  0.005000005391932016  0.00010115988228862268  1.0000
  Co  Co3       1.0  0.0008276768050495539  0.005000000294517295  0.9997353402628304  1.0000
  Ti  Ti4       1.0  0.007494343287899068  2.999999905274149e-10  0.9993659729706323  1.0000
  Ti  Ti5       1.0  0.004161010313650405  2.999999905274149e-10  0.9995506567662408  1.0000
  Ti  Ti6       1.0  0.0008276768050495539  2.999999905274149e-10  0.999181289337856  1.0000
  Ga  Ga16      1.0  0.005827677014515611  0.00702490977893115  0.9994583147322498  1.0000
  Ga  Ga17      1.0  0.002494343612785198  0.00702490977893115  0.9996429985160159  1.0000
  Ga  Ga18      1.0  0.009161009988764275  0.00702490977893115  0.9992736312208573  1.0000
  Ga  Ga19      1.0  0.005827677014515611  0.00297509081010344  0.9994583147322498  1.0000
  Ga  Ga20      1.0  0.002494343612785198  0.00297509081010344  0.9996429985160159  1.0000
  Ga  Ga21      1.0  0.009161009988764275  0.00297509081010344  0.9992736312208573  1.0000
  Ga  Ga22      1.0  0.009161009988764275  0.00702490977893115  0.9995506565412365  1.0000
  Ga  Ga23      1.0  0.005827677014515611  0.00702490977893115  0.9991812894118706  1.0000
  Ga  Ga24      1.0  0.002494343612785198  0.00702490977893115  0.9993659729114207  1.0000
  Ga  Ga25      1.0  0.009161009988764275  0.00297509081010344  0.9995506565412365  1.0000
  Ga  Ga26      1.0  0.005827677014515611  0.00297509081010344  0.9991812894118706  1.0000
  Ga  Ga27      1.0  0.002494343612785198  0.00297509081010344  0.9993659729114207  1.0000
  Ga  Ga28      1.0  0.007494343287899068  2.999999905274149e-10  0.9996429985752275  1.0000
  Ga  Ga29      1.0  0.004161010313650405  2.999999905274149e-10  0.9992736311616457  1.0000
  Ga  Ga30      1.0  0.0008276768050495539  2.999999905274149e-10  0.9994583149424512  1.0000
  Co  Co4       1.0  0.007494343287899068  0.005000000294517295  0.9993659729706323  1.0000
  Co  Co5       1.0  0.004161010313650405  0.005000000294517295  0.9995506567662408  1.0000
  Co  Co6       1.0  0.0008276768050495539  0.005000000294517295  0.999181289337856  1.0000
