data_image0
_chemical_formula_structural       HFe15Si18V15
_chemical_formula_sum              "H1 Fe15 Si18 V15"
_cell_length_a       6.918951034545898
_cell_length_b       8.324663564573635
_cell_length_c       103.4333267211914
_cell_angle_alpha    95.95059932636995
_cell_angle_beta     90.0
_cell_angle_gamma    114.55517999422725

_space_group_name_H-M_alt    "P 1"
_space_group_IT_number       1

loop_
  _space_group_symop_operation_xyz
  'x, y, z'

loop_
  _atom_site_type_symbol
  _atom_site_label
  _atom_site_symmetry_multiplicity
  _atom_site_fract_x
  _atom_site_fract_y
  _atom_site_fract_z
  _atom_site_occupancy
  H   H1        1.0  0.008306315353944882  0.0027575981639885957  0.0001665641992168213  1.0000
  Fe  Fe1       1.0  0.0024144931725487606  0.00501442378791103  0.9993701013331558  1.0000
  Fe  Fe2       1.0  0.000192270908774306  0.0005699791594086774  0.9990109507484685  1.0000
  Fe  Fe3       1.0  0.004636715579654263  0.009458868602122035  0.9997292519193928  1.0000
  Fe  Fe4       1.0  0.004281399909331625  0.008748237362430201  0.9991287209569863  1.0000
  Fe  Fe5       1.0  0.008725844518823545  0.00763712665410052  0.9998470223052914  1.0000
  Fe  Fe6       1.0  0.006503622235523809  0.0031926820875010516  0.9994878714329898  1.0000
  Fe  Fe7       1.0  0.00983580408112622  0.009857045778705872  2.641169666853434e-05  1.0000
  Fe  Fe8       1.0  0.007613581921632253  0.005412601459717938  0.9996672608264329  1.0000
  Fe  Fe9       1.0  0.005391359638332519  0.000968156893118469  0.9993081102422621  1.0000
  Fe  Fe10      1.0  0.0013022305753574693  0.002789898593528447  0.9991903398542974  1.0000
  Fe  Fe11      1.0  0.005746674886761133  0.0016787873899756964  0.9999086409103396  1.0000
  Fe  Fe12      1.0  0.0035244526843747144  0.007234342912516381  0.9995494904364022  1.0000
  Fe  Fe13      1.0  0.00016419593263895135  0.005769067977979324  0.9991595305497072  1.0000
  Fe  Fe14      1.0  0.00460864039547278  0.004657956774426574  0.9998778316057495  1.0000
  Fe  Fe15      1.0  0.002386418235978813  0.0002135124554386396  0.9995186813117755  1.0000
  Si  Si1       1.0  0.0035711759003357445  0.005769067977979324  0.9991595305497072  1.0000
  Si  Si2       1.0  0.008015620161262687  0.004657956774426574  0.9998778316057495  1.0000
  Si  Si3       1.0  0.00579339800176872  0.0002135124554386396  0.9995186813117755  1.0000
  Si  Si4       1.0  0.0009137481351515684  0.007972463984842783  0.9990170872586095  1.0000
  Si  Si5       1.0  0.005358192732589989  0.006861352781290033  0.9997353886027825  1.0000
  Si  Si6       1.0  0.0031359703146856626  0.0024169082146905637  0.9993762380186116  1.0000
  Si  Si7       1.0  0.008710352505120053  0.0035656724663389355  0.9993019735568063  1.0000
  Si  Si8       1.0  0.0031547968387334725  0.0024545612627861844  2.027461284858023e-05  1.0000
  Si  Si9       1.0  0.0009325745353936113  0.008010116785326869  0.9996611241389112  1.0000
  Si  Si10      1.0  0.002908948273899513  0.007991290385084827  0.9993391056987603  1.0000
  Si  Si11      1.0  0.007353392602128751  0.006880179181532075  5.740675480259372e-05  1.0000
  Si  Si12      1.0  0.005131170588038197  0.0024357346149326063  0.9996982564587624  1.0000
  Si  Si13      1.0  0.0034527689002412645  0.001254065513987033  0.9991281767467356  1.0000
  Si  Si14      1.0  0.007897213655497856  0.00014295435686144481  0.999846478091296  1.0000
  Si  Si15      1.0  0.005674991183540998  0.005698510080586502  0.9994873276190372  1.0000
  Si  Si16      1.0  0.00018999379676336815  0.004728515167042466  0.9995500348286823  1.0000
  Si  Si17      1.0  0.007967771761812912  0.00028407056949155535  0.9991908842442532  1.0000
  Si  Si18      1.0  0.002412215956257335  0.0091729594860304  0.9999091851226565  1.0000
  V   V1        1.0  0.005954422338525391  0.004537775049270338  0.9992391300712847  1.0000
  V   V2        1.0  0.0003988666721388119  0.003426663845717587  0.999957431127327  1.0000
  V   V3        1.0  0.008176644228810176  0.008982219368258272  0.9995982806533896  1.0000
  V   V4        1.0  0.0071857152672343775  0.007000360906688311  0.9990799310281298  1.0000
  V   V5        1.0  0.0016301598484593333  0.00588925019835863  0.9997982320883041  1.0000
  V   V6        1.0  0.009407937363267942  0.0014448055079533935  0.9994390817912309  1.0000
  V   V7        1.0  0.006553812983621891  0.007991290385084827  0.9993391056987603  1.0000
  V   V8        1.0  0.0009982573172353116  0.006880179181532075  5.740675480259372e-05  1.0000
  V   V9        1.0  0.008776035163155985  0.0024357346149326063  0.9996982564587624  1.0000
  V   V10       1.0  0.0028052856142342193  0.0036992623561246246  0.9996165730218838  1.0000
  V   V11       1.0  0.0005830632435920628  0.00925481787866531  0.9992574225479464  1.0000
  V   V12       1.0  0.005027507706425891  0.008143706675112558  0.9999757233158578  1.0000
  V   V13       1.0  0.007097313595932252  0.0022833183249048746  0.9990616385535341  1.0000
  V   V14       1.0  0.0015417580587508526  0.0011722072451578911  0.9997799398987401  1.0000
  V   V15       1.0  0.009319535879231988  0.006727762891504343  0.999420789137705  1.0000
