data_image0
_chemical_formula_structural       COAg18Sn6
_chemical_formula_sum              "C1 O1 Ag18 Sn6"
_cell_length_a       7.242794221364118
_cell_length_b       7.921716987757189
_cell_length_c       108.08768463134766
_cell_angle_alpha    79.56316824711465
_cell_angle_beta     87.20019150866439
_cell_angle_gamma    64.67253098402514

_space_group_name_H-M_alt    "P 1"
_space_group_IT_number       1

loop_
  _space_group_symop_operation_xyz
  'x, y, z'

loop_
  _atom_site_type_symbol
  _atom_site_label
  _atom_site_symmetry_multiplicity
  _atom_site_fract_x
  _atom_site_fract_y
  _atom_site_fract_z
  _atom_site_occupancy
  C   C1        1.0  0.008004800498939013  0.007854109921491102  0.9999545675339175  1.0000
  O   O1        1.0  0.008004800498939013  0.007854109921491102  6.558873267506487e-05  1.0000
  Ag  Ag1       1.0  0.009466414653435517  0.0018820739192676825  0.999591959136791  1.0000
  Ag  Ag2       1.0  0.002799747958719648  0.005215407448208408  0.9992983110220861  1.0000
  Ag  Ag3       1.0  0.0060719220033897785  0.008657661384514277  0.999865182083159  1.0000
  Ag  Ag4       1.0  0.0071407926769289625  0.00804488475294647  0.9994895218353111  1.0000
  Ag  Ag5       1.0  0.00047412616232178905  0.0013782180915664886  0.9991958737666593  1.0000
  Ag  Ag6       1.0  0.0038625669662175105  0.0047165504466936915  0.9997757776700327  1.0000
  Ag  Ag7       1.0  0.0013709611444958005  0.004682277388384435  0.9995659487963316  1.0000
  Ag  Ag8       1.0  0.004704294500186351  0.008015610785158004  0.9992723011161025  1.0000
  Ag  Ag9       1.0  0.008034976670350764  0.00136826907670706  0.9998428276603396  1.0000
  Ag  Ag10      1.0  0.005236246135462259  0.005244681415996873  0.9995155317412947  1.0000
  Ag  Ag11      1.0  0.008569579233673281  0.008578014812770441  0.9992218835104613  1.0000
  Ag  Ag12      1.0  0.0018947638331916414  0.0019154026432450057  0.9998018990784372  1.0000
  Ag  Ag13      1.0  0.009767056659076208  0.007923199509456419  0.9997179022487684  1.0000
  Ag  Ag14      1.0  0.0030409304226826205  0.001342339070140742  0.9994188340449409  1.0000
  Ag  Ag15      1.0  0.006374263914441501  0.004675672731248623  0.9991251858093099  1.0000
  Ag  Ag16      1.0  0.0034937147685148284  0.008523061295176892  0.9996679556950744  1.0000
  Ag  Ag17      1.0  0.006899610196300756  0.001917952808526273  0.9993689983094611  1.0000
  Ag  Ag18      1.0  0.00023294362299608785  0.005251286073132686  0.9990753504735919  1.0000
  Sn  Sn1       1.0  0.008841070682208815  0.00469474603791202  0.9993441781582655  1.0000
  Sn  Sn2       1.0  0.002174404048198547  0.008028079434685588  0.9990505300451167  1.0000
  Sn  Sn3       1.0  0.005430746203545687  0.001385401773014155  0.999637502924687  1.0000
  Sn  Sn4       1.0  0.007802988685642281  0.005216492804896138  0.9997585857682372  1.0000
  Sn  Sn5       1.0  0.0010994699534397957  0.008565546163242857  0.9994436541476847  1.0000
  Sn  Sn6       1.0  0.004432803428533441  0.0018988795018628761  0.9991500065119525  1.0000
