data_image0
_chemical_formula_structural       HCuPdCuPdCuPdCuPdCuPdCuPdCuPdCuPdCuPdCuPdCuPdCuPd
_chemical_formula_sum              "H1 Cu12 Pd12"
_cell_length_a       6.095424175262451
_cell_length_b       6.095424175262451
_cell_length_c       100.47711944580078
_cell_angle_alpha    90.0
_cell_angle_beta     90.0
_cell_angle_gamma    90.0

_space_group_name_H-M_alt    "P 1"
_space_group_IT_number       1

loop_
  _space_group_symop_operation_xyz
  'x, y, z'

loop_
  _atom_site_type_symbol
  _atom_site_label
  _atom_site_symmetry_multiplicity
  _atom_site_fract_x
  _atom_site_fract_y
  _atom_site_fract_z
  _atom_site_occupancy
  H   H1        1.0  0.002499999437731161  0.0012500012467700345  0.00012262014040219634  1.0000
  Cu  Cu1       1.0  4.499999810585021e-10  0.0012499999480512487  0.9994017715221838  1.0000
  Pd  Pd1       1.0  0.0025000003544738336  0.0037499997677585234  0.9992501095978606  1.0000
  Cu  Cu2       1.0  4.499999810585021e-10  0.0012499999480512487  0.9997050956674381  1.0000
  Pd  Pd2       1.0  0.0025000003544738336  0.0037499997677585234  0.9995534334465069  1.0000
  Cu  Cu3       1.0  0.00999999958440999  0.0012500012467700345  0.0  1.0000
  Pd  Pd3       1.0  0.0025000011184260606  0.0037499982398540694  0.9998569874629994  1.0000
  Cu  Cu4       1.0  4.499999810585021e-10  0.0062500001222323565  0.9994017715221838  1.0000
  Pd  Pd4       1.0  0.0025000003544738336  0.008749999559963518  0.9992501095978606  1.0000
  Cu  Cu5       1.0  4.499999810585021e-10  0.0062500001222323565  0.9997050956674381  1.0000
  Pd  Pd5       1.0  0.0025000003544738336  0.008749999559963518  0.9995534334465069  1.0000
  Cu  Cu6       1.0  0.00999999958440999  0.00625000134455592  0.0  1.0000
  Pd  Pd6       1.0  0.0025000011184260606  0.008749998337639954  0.9998569874629994  1.0000
  Cu  Cu7       1.0  0.005000000403366776  0.0012499999480512487  0.9994017715221838  1.0000
  Pd  Pd7       1.0  0.0075000001466788285  0.0037499997677585234  0.9992501095978606  1.0000
  Cu  Cu8       1.0  0.005000000403366776  0.0012499999480512487  0.9997050956674381  1.0000
  Pd  Pd8       1.0  0.0075000001466788285  0.0037499997677585234  0.9995534334465069  1.0000
  Cu  Cu9       1.0  0.004999999486624104  0.0012500012467700345  0.0  1.0000
  Pd  Pd9       1.0  0.007500000757840609  0.0037499982398540694  0.9998569874629994  1.0000
  Cu  Cu10      1.0  0.005000000403366776  0.0062500001222323565  0.9994017715221838  1.0000
  Pd  Pd10      1.0  0.0075000001466788285  0.008749999559963518  0.9992501095978606  1.0000
  Cu  Cu11      1.0  0.005000000403366776  0.0062500001222323565  0.9997050956674381  1.0000
  Pd  Pd11      1.0  0.0075000001466788285  0.008749999559963518  0.9995534334465069  1.0000
  Cu  Cu12      1.0  0.004999999486624104  0.00625000134455592  0.0  1.0000
  Pd  Pd12      1.0  0.007500000757840609  0.008749998337639954  0.9998569874629994  1.0000
