data_image0
_chemical_formula_structural       HIn8Rh8
_chemical_formula_sum              "H1 In8 Rh8"
_cell_length_a       4.609145164489746
_cell_length_b       5.645027160644531
_cell_length_c       101.93309783935547
_cell_angle_alpha    90.0
_cell_angle_beta     90.0
_cell_angle_gamma    90.0

_space_group_name_H-M_alt    "P 1"
_space_group_IT_number       1

loop_
  _space_group_symop_operation_xyz
  'x, y, z'

loop_
  _atom_site_type_symbol
  _atom_site_label
  _atom_site_symmetry_multiplicity
  _atom_site_fract_x
  _atom_site_fract_y
  _atom_site_fract_z
  _atom_site_occupancy
  H   H1        1.0  0.007500000096988665  0.0024898875848081846  0.0001208686751880065  1.0000
  In  In1       1.0  0.002500000032329555  0.0008263032758164477  0.9995027060727176  1.0000
  In  In2       1.0  0.007500000096988665  0.0008263032758164477  0.9991111123000881  1.0000
  In  In3       1.0  0.002500000032329555  0.00749296995898122  0.9992416435576313  1.0000
  In  In4       1.0  0.007500000096988665  0.004159636493663038  0.9993721748151745  1.0000
  In  In5       1.0  0.002500000032329555  0.007327439840249761  2.7253107557122356e-05  1.0000
  In  In6       1.0  0.007500000096988665  0.00749296995898122  0.9996332376226322  1.0000
  In  In7       1.0  0.002500000032329555  0.004189663376865104  0.999759716904961  1.0000
  In  In8       1.0  0.007500000096988665  0.0008677736579146985  0.9999109214517339  1.0000
  Rh  Rh1       1.0  0.002500000032329555  0.0024929697610039463  0.9992416435576313  1.0000
  Rh  Rh2       1.0  0.007500000096988665  0.009159636361678188  0.9993721748151745  1.0000
  Rh  Rh3       1.0  0.002500000032329555  0.0058263028963600055  0.9995027060727176  1.0000
  Rh  Rh4       1.0  0.007500000096988665  0.0058263028963600055  0.9991111123000881  1.0000
  Rh  Rh5       1.0  0.002500000032329555  0.009173696707685445  0.999761407981131  1.0000
  Rh  Rh6       1.0  0.007500000096988665  0.005895654335480568  0.9998905987158112  1.0000
  Rh  Rh7       1.0  0.002500000032329555  0.0024898875848081846  0.0  1.0000
  Rh  Rh8       1.0  0.007500000096988665  0.0024929697610039463  0.9996332376226322  1.0000
