data_image0
_chemical_formula_structural       AlIrAlIrAlIrAlIrAlIrAlIrAlIrAlIrAlIrAlIrAlIrAlIrH
_chemical_formula_sum              "Al12 Ir12 H1"
_cell_length_a       6.061377048492432
_cell_length_b       6.061377048492432
_cell_length_c       100.306884765625
_cell_angle_alpha    90.0
_cell_angle_beta     90.0
_cell_angle_gamma    90.0

_space_group_name_H-M_alt    "P 1"
_space_group_IT_number       1

loop_
  _space_group_symop_operation_xyz
  'x, y, z'

loop_
  _atom_site_type_symbol
  _atom_site_label
  _atom_site_symmetry_multiplicity
  _atom_site_fract_x
  _atom_site_fract_y
  _atom_site_fract_z
  _atom_site_occupancy
  Al  Al1       1.0  1.9999999694525346e-10  2.999999954178802e-10  0.9993932797334482  1.0000
  Ir  Ir1       1.0  0.0025000001352108374  0.0025000002888595162  0.9992422086709724  1.0000
  Al  Al2       1.0  1.9999999694525346e-10  2.999999954178802e-10  0.9996954209670655  1.0000
  Ir  Ir2       1.0  0.0025000001352108374  0.0025000002888595162  0.9995443504988125  1.0000
  Al  Al3       1.0  0.00999999931165392  0.00999999931165392  0.0  1.0000
  Ir  Ir3       1.0  0.0025000001352108374  0.0024999999815621585  0.9998571000961861  1.0000
  Al  Al4       1.0  1.9999999694525346e-10  0.005000000270421675  0.9993932797334482  1.0000
  Ir  Ir4       1.0  0.0025000001352108374  0.007500000098335155  0.9992422086709724  1.0000
  Al  Al5       1.0  1.9999999694525346e-10  0.005000000270421675  0.9996954209670655  1.0000
  Ir  Ir5       1.0  0.0025000001352108374  0.007500000098335155  0.9995443504988125  1.0000
  Al  Al6       1.0  0.00999999931165392  0.00499999965582696  0.0  1.0000
  Ir  Ir6       1.0  0.0025000001352108374  0.007500000098335155  0.9998571000961861  1.0000
  Al  Al7       1.0  0.004999999963124317  2.999999954178802e-10  0.9993932797334482  1.0000
  Ir  Ir7       1.0  0.007500000098335155  0.0025000002888595162  0.9992422086709724  1.0000
  Al  Al8       1.0  0.004999999963124317  2.999999954178802e-10  0.9996954209670655  1.0000
  Ir  Ir8       1.0  0.007500000098335155  0.0025000002888595162  0.9995443504988125  1.0000
  Al  Al9       1.0  0.00499999965582696  0.00999999931165392  0.0  1.0000
  Ir  Ir9       1.0  0.007500000098335155  0.0024999999815621585  0.9998571000961861  1.0000
  Al  Al10      1.0  0.004999999963124317  0.005000000270421675  0.9993932797334482  1.0000
  Ir  Ir10      1.0  0.007500000098335155  0.007500000098335155  0.9992422086709724  1.0000
  Al  Al11      1.0  0.004999999963124317  0.005000000270421675  0.9996954209670655  1.0000
  Ir  Ir11      1.0  0.007500000098335155  0.007500000098335155  0.9995443504988125  1.0000
  Al  Al12      1.0  0.00499999965582696  0.00499999965582696  0.0  1.0000
  Ir  Ir12      1.0  0.007500000098335155  0.007500000098335155  0.9998571000961861  1.0000
  H   H1        1.0  0.0037500000491675774  0.00374999974187022  7.809098668301866e-05  1.0000
