data_image0
_chemical_formula_structural       Co2Rh4Sn2Co2Rh4Sn2CO
_chemical_formula_sum              "Co4 Rh8 Sn4 C1 O1"
_cell_length_a       8.167019844055176
_cell_length_b       4.600742572069206
_cell_length_c       98.38258361816406
_cell_angle_alpha    89.43306390483812
_cell_angle_beta     90.0
_cell_angle_gamma    116.3458299663801

_space_group_name_H-M_alt    "P 1"
_space_group_IT_number       1

loop_
  _space_group_symop_operation_xyz
  'x, y, z'

loop_
  _atom_site_type_symbol
  _atom_site_label
  _atom_site_symmetry_multiplicity
  _atom_site_fract_x
  _atom_site_fract_y
  _atom_site_fract_z
  _atom_site_occupancy
  Co  Co1       1.0  0.000156250012606929  0.000625000051958266  0.9996702680791156  1.0000
  Co  Co2       1.0  0.004000345309208571  0.005992286277633629  0.9999972272759309  1.0000
  Rh  Rh1       1.0  0.001718750068080759  0.006875000289159046  0.999580114363041  1.0000
  Rh  Rh2       1.0  0.004843750299320353  0.009375000722897615  0.9993998069415128  1.0000
  Rh  Rh3       1.0  0.0005477714445811835  0.002182012683007314  0.9999358576134526  1.0000
  Rh  Rh4       1.0  0.0036197361805073163  0.004471864069426624  0.999755150637854  1.0000
  Sn  Sn1       1.0  0.0032812501411865003  0.003125000090362202  0.9994899606577704  1.0000
  Sn  Sn2       1.0  0.0021061313535809855  0.008410787234345247  0.9998550952362765  1.0000
  Co  Co3       1.0  0.005156250250181466  0.000625000051958266  0.9996702680791156  1.0000
  Co  Co4       1.0  0.009000345546400472  0.005992286277633629  0.9999972272759309  1.0000
  Rh  Rh5       1.0  0.006718750309481661  0.006875000289159046  0.999580114363041  1.0000
  Rh  Rh6       1.0  0.009843750308443118  0.009375000722897615  0.9993998069415128  1.0000
  Rh  Rh7       1.0  0.0055477717835578436  0.002182012683007314  0.9999358576134526  1.0000
  Rh  Rh8       1.0  0.008619736417699215  0.004471864069426624  0.999755150637854  1.0000
  Sn  Sn3       1.0  0.008281250150309265  0.003125000090362202  0.9994899606577704  1.0000
  Sn  Sn4       1.0  0.007106131310809114  0.008410787234345247  0.9998550952362765  1.0000
  C   C1        1.0  0.0005477714445811835  0.002182012683007314  0.00013914543321691408  1.0000
  O   O1        1.0  0.0005477714445811835  0.002182012683007314  0.0002611184885827781  1.0000
