data_image0
_chemical_formula_structural       HAl12Fe18Si18
_chemical_formula_sum              "H1 Al12 Fe18 Si18"
_cell_length_a       7.592120995662764
_cell_length_b       10.221499471515465
_cell_length_c       104.11243438720703
_cell_angle_alpha    95.13631903924576
_cell_angle_beta     114.31660848037257
_cell_angle_gamma    84.41963890331586

_space_group_name_H-M_alt    "P 1"
_space_group_IT_number       1

loop_
  _space_group_symop_operation_xyz
  'x, y, z'

loop_
  _atom_site_type_symbol
  _atom_site_label
  _atom_site_symmetry_multiplicity
  _atom_site_fract_x
  _atom_site_fract_y
  _atom_site_fract_z
  _atom_site_occupancy
  H   H1        1.0  0.004718834031006472  0.009885583960751962  0.0002603816424541852  1.0000
  Al  Al1       1.0  0.0005094363915371483  0.0038517490706028823  0.9996896379473016  1.0000
  Al  Al2       1.0  0.0005094363915371483  0.00718508236002513  0.9994165958849932  1.0000
  Al  Al3       1.0  0.0005094363915371483  0.0005184157811806339  0.9999626791508561  1.0000
  Al  Al4       1.0  0.007273898246418446  0.002307180476475169  0.9995537412049087  1.0000
  Al  Al5       1.0  0.007273898246418446  0.005640513765897417  9.982420053751469e-05  1.0000
  Al  Al6       1.0  0.007273898246418446  0.008973846689393956  0.9998267827075155  1.0000
  Al  Al7       1.0  0.0027261015485173174  0.0018108514963885599  0.9998323853722588  1.0000
  Al  Al8       1.0  0.0027261015485173174  0.005144184785810808  0.999559343882453  1.0000
  Al  Al9       1.0  0.0027261015485173174  0.008477518075233057  0.00010542716433318766  1.0000
  Al  Al10      1.0  0.00949056384185833  0.00026628288243897216  0.999696488929109  1.0000
  Al  Al11      1.0  0.00949056384185833  0.00359961617186122  0.9994234474393032  1.0000
  Al  Al12      1.0  0.00949056384185833  0.006932949461283469  0.9999695307211833  1.0000
  Fe  Fe1       1.0  0.007673270018534698  0.0031909920475837626  0.9999868125057243  1.0000
  Fe  Fe2       1.0  0.007673270018534698  0.006524325337006011  0.9997137710159185  1.0000
  Fe  Fe3       1.0  0.007673270018534698  0.009857658260502548  0.9994407295228965  1.0000
  Fe  Fe4       1.0  0.0023267303160437905  0.0009270399923652402  0.9993993138019858  1.0000
  Fe  Fe5       1.0  0.0023267303160437905  0.004260373190306061  0.9999453970830618  1.0000
  Fe  Fe6       1.0  0.0023267303160437905  0.007593706479728309  0.9996723555932561  1.0000
  Fe  Fe7       1.0  0.00943280480178068  0.002404636106674406  0.9998139059699969  1.0000
  Fe  Fe8       1.0  0.00943280480178068  0.0057379692131337996  0.9995408641923316  1.0000
  Fe  Fe9       1.0  0.00943280480178068  0.009071302868481757  8.69477636793033e-05  1.0000
  Fe  Fe10      1.0  0.0005671958026191719  0.0017133958295950929  0.9995722206311556  1.0000
  Fe  Fe11      1.0  0.0005671958026191719  0.005046728936054486  0.0001183041976788746  1.0000
  Fe  Fe12      1.0  0.0005671958026191719  0.008380062591402445  0.9998452624248381  1.0000
  Fe  Fe13      1.0  0.005844368480209289  0.004003616461501876  0.9997038231531586  1.0000
  Fe  Fe14      1.0  0.005844368480209289  0.007336949750924125  0.9994307816633529  1.0000
  Fe  Fe15      1.0  0.005844368480209289  0.0006702830805982005  0.9999768649284118  1.0000
  Fe  Fe16      1.0  0.004155631854369199  0.00011441560131748358  0.9996823034410038  1.0000
  Fe  Fe17      1.0  0.004155631854369199  0.0034477487763879475  0.9994092616639416  1.0000
  Fe  Fe18      1.0  0.004155631854369199  0.006781082065810196  0.9999553452320731  1.0000
  Si  Si1       1.0  0.003478187582798462  0.0024199544857733293  0.9995922647872785  1.0000
  Si  Si2       1.0  0.003478187582798462  0.005753287958158433  0.00013834835701805162  1.0000
  Si  Si3       1.0  0.003478187582798462  0.009086621247580681  0.999865306580961  1.0000
  Si  Si4       1.0  0.0053289071462926  0.00967710914917931  0.9995134456160588  1.0000
  Si  Si5       1.0  0.0053289071462926  0.0030104429362605217  5.952888513802959e-05  1.0000
  Si  Si6       1.0  0.0053289071462926  0.006343776225682771  0.9997864871090809  1.0000
  Si  Si7       1.0  0.006521812212137302  0.0016980773041275444  0.999793861788281  1.0000
  Si  Si8       1.0  0.006521812212137302  0.005031410593549793  0.9995208200122239  1.0000
  Si  Si9       1.0  0.006521812212137302  0.00836474351704633  6.690357713903301e-05  1.0000
  Si  Si10      1.0  0.0011377313191489552  0.0028280786124311418  5.9020754974729795e-05  1.0000
  Si  Si11      1.0  0.0011377313191489552  0.006161411718890534  0.9997859795498121  1.0000
  Si  Si12      1.0  0.0011377313191489552  0.009494745374238493  0.9995129377769713  1.0000
  Si  Si13      1.0  0.00886226861069749  0.001289953354333549  0.00014623059787622071  1.0000
  Si  Si14      1.0  0.00886226861069749  0.004623286460792943  0.9998731888202109  1.0000
  Si  Si15      1.0  0.00886226861069749  0.00795661938428948  0.9996001473271889  1.0000
  Si  Si16      1.0  0.004671092918464526  0.004440922313827379  0.9998726812681559  1.0000
  Si  Si17      1.0  0.004671092918464526  0.007774255603249627  0.9995996394920988  1.0000
  Si  Si18      1.0  0.004671092918464526  0.0011075889329237028  0.0001457224709063241  1.0000
