data_image0
_chemical_formula_structural       HCr12Se24Ti6
_chemical_formula_sum              "H1 Cr12 Se24 Ti6"
_cell_length_a       6.834993299468798
_cell_length_b       9.575031685827247
_cell_length_c       106.72862243652344
_cell_angle_alpha    93.49875920825285
_cell_angle_beta     92.45655823369624
_cell_angle_gamma    96.38760758816245

_space_group_name_H-M_alt    "P 1"
_space_group_IT_number       1

loop_
  _space_group_symop_operation_xyz
  'x, y, z'

loop_
  _atom_site_type_symbol
  _atom_site_label
  _atom_site_symmetry_multiplicity
  _atom_site_fract_x
  _atom_site_fract_y
  _atom_site_fract_z
  _atom_site_occupancy
  H   H1        1.0  0.008554735628155273  0.006912896422488523  0.00014547492909930412  1.0000
  Cr  Cr1       1.0  0.007588692288449316  0.00870547041037127  0.9998318332563031  1.0000
  Cr  Cr2       1.0  0.00851172795462327  0.0018571975383132613  0.999654736356061  1.0000
  Cr  Cr3       1.0  0.006439080853268973  0.0063078159026664325  0.9999886788491368  1.0000
  Cr  Cr4       1.0  0.009557947450517341  0.008440822500295554  0.9995854001031788  1.0000
  Cr  Cr5       1.0  0.006198487518091418  0.003380334717413928  0.9999494725694651  1.0000
  Cr  Cr6       1.0  0.007891280840617958  0.005663045062559468  0.9997765837874246  1.0000
  Cr  Cr7       1.0  0.0018450610148036744  0.00741275300231913  0.9992723686217636  1.0000
  Cr  Cr8       1.0  0.0035117277548300484  0.0001905307593347471  0.9990811848837761  1.0000
  Cr  Cr9       1.0  0.00017839423991367875  0.004634975172227246  0.9994635523034084  1.0000
  Cr  Cr10      1.0  0.004557947338900361  0.006774156273067382  0.9990118483549222  1.0000
  Cr  Cr11      1.0  0.0012246136213854724  0.0012186004167057138  0.9993942159959119  1.0000
  Cr  Cr12      1.0  0.0028912803308280798  0.003996378050619699  0.9992030320337788  1.0000
  Se  Se1       1.0  0.0005005725598402525  0.007740144097657999  0.9997929949858941  1.0000
  Se  Se2       1.0  0.0015814020989966134  0.0007299278898850248  0.9996166330054906  1.0000
  Se  Se3       1.0  0.009096665417237922  0.0050214880088032335  0.9999808316174712  1.0000
  Se  Se4       1.0  0.006488272703674732  0.009568092099679315  0.9996235030832372  1.0000
  Se  Se5       1.0  0.0038295109248327693  0.004672486740759513  3.6093342513630456e-05  1.0000
  Se  Se6       1.0  0.004870526973853261  0.006902991792695116  0.9998039368395906  1.0000
  Se  Se7       1.0  0.003965065377683339  0.001118738803421031  0.9999894969402414  1.0000
  Se  Se8       1.0  0.00575156387265106  0.003266328677570366  0.9997308780659528  1.0000
  Se  Se9       1.0  0.0074182305452535485  0.00604410650766225  0.9995396943840272  1.0000
  Se  Se10      1.0  0.007757213845413276  0.008562531269187768  7.822928794519811e-05  1.0000
  Se  Se11      1.0  0.008682726756697642  0.0014873256882460598  0.9998892484088717  1.0000
  Se  Se12      1.0  0.0006514444436455295  0.004253913727124464  0.9997004417065545  1.0000
  Se  Se13      1.0  0.004914735557071269  0.006285483402935369  0.9992342653619091  1.0000
  Se  Se14      1.0  0.006581402229673757  0.009063261233027253  0.9990430814007489  1.0000
  Se  Se15      1.0  0.0032480688844687806  0.0035077055728434843  0.9994254493230693  1.0000
  Se  Se16      1.0  0.0014882725409139967  0.007901425872451144  0.9990499516140747  1.0000
  Se  Se17      1.0  0.008154939128215882  0.0023458700160894756  0.9994323193452563  1.0000
  Se  Se18      1.0  0.009821606377703298  0.005123648042359259  0.9992411353867536  1.0000
  Se  Se19      1.0  0.009084897280559142  0.008821884730109935  0.9993485107044218  1.0000
  Se  Se20      1.0  0.0007515635462718546  0.0015996619598974457  0.9991573265936561  1.0000
  Se  Se21      1.0  0.0024182302345501184  0.00437743988807828  0.9989661429123106  1.0000
  Se  Se22      1.0  0.0023181112419764127  0.007031691557216348  0.9995092580249739  1.0000
  Se  Se23      1.0  0.003984777778195557  0.009809469387308232  0.999318074342674  1.0000
  Se  Se24      1.0  0.00565144471691853  0.0025872471075404934  0.9991268903257958  1.0000
  Ti  Ti1       1.0  0.0006128550943814597  0.009684089737559295  0.9999693385314611  1.0000
  Ti  Ti2       1.0  0.002244275147476657  0.002382923901582049  0.999818478409503  1.0000
  Ti  Ti3       1.0  0.004034837520473617  0.0051490103135712565  0.9996200683256709  1.0000
  Ti  Ti4       1.0  0.005701504130373  0.007926787751307342  0.9994288840829558  1.0000
  Ti  Ti5       1.0  0.007368170539238375  0.0007045655696285524  0.999237700344395  1.0000
  Ti  Ti6       1.0  0.009034837741698462  0.003482343301631487  0.9990465166633867  1.0000
