data_image0
_chemical_formula_structural       HAl4Mn4Ru8Al4Mn4Ru8Al4Mn4Ru8Al4Mn4Ru8
_chemical_formula_sum              "H1 Al16 Mn16 Ru32"
_cell_length_a       8.4203462600708
_cell_length_b       8.4203462600708
_cell_length_c       105.72450256347656
_cell_angle_alpha    90.0
_cell_angle_beta     90.0
_cell_angle_gamma    90.0

_space_group_name_H-M_alt    "P 1"
_space_group_IT_number       1

loop_
  _space_group_symop_operation_xyz
  'x, y, z'

loop_
  _atom_site_type_symbol
  _atom_site_label
  _atom_site_symmetry_multiplicity
  _atom_site_fract_x
  _atom_site_fract_y
  _atom_site_fract_z
  _atom_site_occupancy
  H   H1        1.0  0.0025006885221351507  0.002500847570447528  0.00011650937664035461  1.0000
  Al  Al1       1.0  0.0025002392493640264  0.0025010577177309195  0.9998686414001363  1.0000
  Al  Al2       1.0  1.1149999849350321e-07  3.4179997674625193e-07  0.9995905737827802  1.0000
  Al  Al3       1.0  0.0025001113913326574  0.002500341668513721  0.999308988784214  1.0000
  Al  Al4       1.0  1.1149999849350321e-07  3.4179997674625193e-07  0.9990274043494212  1.0000
  Mn  Mn1       1.0  0.009998454696330079  0.009999658066037078  0.9998890156010577  1.0000
  Mn  Mn2       1.0  0.0025001113913326574  0.002500341668513721  0.9995905737827802  1.0000
  Mn  Mn3       1.0  1.1149999849350321e-07  3.4179997674625193e-07  0.999308988784214  1.0000
  Mn  Mn4       1.0  0.0025001113913326574  0.002500341668513721  0.9990274043494212  1.0000
  Ru  Ru1       1.0  0.009999888122010477  0.0025004250638040776  0.9997283870224056  1.0000
  Ru  Ru2       1.0  6.885999704379789e-07  0.002500847570447528  0.9999999757577509  1.0000
  Ru  Ru3       1.0  0.0024988310413576365  1.673599960338328e-06  0.0  1.0000
  Ru  Ru4       1.0  0.0024996495097245296  4.3009999085283347e-07  0.9997283949152309  1.0000
  Ru  Ru5       1.0  1.1149999849350321e-07  0.002500341668513721  0.9991681965668177  1.0000
  Ru  Ru6       1.0  1.1149999849350321e-07  0.002500341668513721  0.9994497815653838  1.0000
  Ru  Ru7       1.0  0.0025001113913326574  3.4179997674625193e-07  0.9994497815653838  1.0000
  Ru  Ru8       1.0  0.0025001113913326574  3.4179997674625193e-07  0.9991681965668177  1.0000
  Al  Al5       1.0  0.0025002392493640264  0.007501057301860506  0.9998686414001363  1.0000
  Al  Al6       1.0  1.1149999849350321e-07  0.005000341792390015  0.9995905737827802  1.0000
  Al  Al7       1.0  0.0025001113913326574  0.007500341473850975  0.999308988784214  1.0000
  Al  Al8       1.0  1.1149999849350321e-07  0.005000341792390015  0.9990274043494212  1.0000
  Mn  Mn5       1.0  0.009998454696330079  0.0049996578182844925  0.9998890156010577  1.0000
  Mn  Mn6       1.0  0.0025001113913326574  0.007500341473850975  0.9995905737827802  1.0000
  Mn  Mn7       1.0  1.1149999849350321e-07  0.005000341792390015  0.999308988784214  1.0000
  Mn  Mn8       1.0  0.0025001113913326574  0.007500341473850975  0.9990274043494212  1.0000
  Ru  Ru9       1.0  0.009999888122010477  0.0075004246479336645  0.9997283870224056  1.0000
  Ru  Ru10      1.0  6.885999704379789e-07  0.007500847596992448  0.9999999757577509  1.0000
  Ru  Ru11      1.0  0.0024988310413576365  0.005001673462543717  0.0  1.0000
  Ru  Ru12      1.0  0.0024996495097245296  0.005000429833041373  0.9997283949152309  1.0000
  Ru  Ru13      1.0  1.1149999849350321e-07  0.007500341473850975  0.9991681965668177  1.0000
  Ru  Ru14      1.0  1.1149999849350321e-07  0.007500341473850975  0.9994497815653838  1.0000
  Ru  Ru15      1.0  0.0025001113913326574  0.005000341792390015  0.9994497815653838  1.0000
  Ru  Ru16      1.0  0.0025001113913326574  0.005000341792390015  0.9991681965668177  1.0000
  Al  Al9       1.0  0.007500238833493613  0.0025010577177309195  0.9998686414001363  1.0000
  Al  Al10      1.0  0.005000111294001284  3.4179997674625193e-07  0.9995905737827802  1.0000
  Al  Al11      1.0  0.0075001114178775774  0.002500341668513721  0.999308988784214  1.0000
  Al  Al12      1.0  0.005000111294001284  3.4179997674625193e-07  0.9990274043494212  1.0000
  Mn  Mn9       1.0  0.004998454890992826  0.009999658066037078  0.9998890156010577  1.0000
  Mn  Mn10      1.0  0.0075001114178775774  0.002500341668513721  0.9995905737827802  1.0000
  Mn  Mn11      1.0  0.005000111294001284  3.4179997674625193e-07  0.999308988784214  1.0000
  Mn  Mn12      1.0  0.0075001114178775774  0.002500341668513721  0.9990274043494212  1.0000
  Ru  Ru17      1.0  0.0049998883166732224  0.0025004250638040776  0.9997283870224056  1.0000
  Ru  Ru18      1.0  0.00500068820359611  0.002500847570447528  0.9999999757577509  1.0000
  Ru  Ru19      1.0  0.007498831067902557  1.673599960338328e-06  0.0  1.0000
  Ru  Ru20      1.0  0.00749964953626945  4.3009999085283347e-07  0.9997283949152309  1.0000
  Ru  Ru21      1.0  0.005000111294001284  0.002500341668513721  0.9991681965668177  1.0000
  Ru  Ru22      1.0  0.005000111294001284  0.002500341668513721  0.9994497815653838  1.0000
  Ru  Ru23      1.0  0.0075001114178775774  3.4179997674625193e-07  0.9994497815653838  1.0000
  Ru  Ru24      1.0  0.0075001114178775774  3.4179997674625193e-07  0.9991681965668177  1.0000
  Al  Al13      1.0  0.007500238833493613  0.007501057301860506  0.9998686414001363  1.0000
  Al  Al14      1.0  0.005000111294001284  0.005000341792390015  0.9995905737827802  1.0000
  Al  Al15      1.0  0.0075001114178775774  0.007500341473850975  0.999308988784214  1.0000
  Al  Al16      1.0  0.005000111294001284  0.005000341792390015  0.9990274043494212  1.0000
  Mn  Mn13      1.0  0.004998454890992826  0.0049996578182844925  0.9998890156010577  1.0000
  Mn  Mn14      1.0  0.0075001114178775774  0.007500341473850975  0.9995905737827802  1.0000
  Mn  Mn15      1.0  0.005000111294001284  0.005000341792390015  0.999308988784214  1.0000
  Mn  Mn16      1.0  0.0075001114178775774  0.007500341473850975  0.9990274043494212  1.0000
  Ru  Ru25      1.0  0.0049998883166732224  0.0075004246479336645  0.9997283870224056  1.0000
  Ru  Ru26      1.0  0.00500068820359611  0.007500847596992448  0.9999999757577509  1.0000
  Ru  Ru27      1.0  0.007498831067902557  0.005001673462543717  0.0  1.0000
  Ru  Ru28      1.0  0.00749964953626945  0.005000429833041373  0.9997283949152309  1.0000
  Ru  Ru29      1.0  0.005000111294001284  0.007500341473850975  0.9991681965668177  1.0000
  Ru  Ru30      1.0  0.005000111294001284  0.007500341473850975  0.9994497815653838  1.0000
  Ru  Ru31      1.0  0.0075001114178775774  0.005000341792390015  0.9994497815653838  1.0000
  Ru  Ru32      1.0  0.0075001114178775774  0.005000341792390015  0.9991681965668177  1.0000
