data_image0
_chemical_formula_structural       COAl8Fe4Ir4Al8Fe4Ir4Al8Fe4Ir4Al8Fe4Ir4
_chemical_formula_sum              "C1 O1 Al32 Fe16 Ir16"
_cell_length_a       8.389993667602539
_cell_length_b       8.389993667602539
_cell_length_c       105.5957260131836
_cell_angle_alpha    90.0
_cell_angle_beta     90.0
_cell_angle_gamma    90.0

_space_group_name_H-M_alt    "P 1"
_space_group_IT_number       1

loop_
  _space_group_symop_operation_xyz
  'x, y, z'

loop_
  _atom_site_type_symbol
  _atom_site_label
  _atom_site_symmetry_multiplicity
  _atom_site_fract_x
  _atom_site_fract_y
  _atom_site_fract_z
  _atom_site_occupancy
  C   C1        1.0  0.002499999138609221  0.002499991368331578  0.00016402665504774598  1.0000
  O   O1        1.0  0.002499999138609221  0.002499991368331578  0.00027766728395494343  1.0000
  Al  Al1       1.0  9.000000233014669e-10  0.0025000208953866224  0.9999999994355392  1.0000
  Al  Al2       1.0  1.5000000388357782e-09  0.0025000100169979217  0.9997274851139503  1.0000
  Al  Al3       1.0  0.002499999360617154  0.009999997442468616  0.9997274851139503  1.0000
  Al  Al4       1.0  0.002499999138609221  0.0099999912262465  0.0  1.0000
  Al  Al5       1.0  4.000000015344049e-10  0.0025000029127440764  0.999451921010823  1.0000
  Al  Al6       1.0  4.000000015344049e-10  0.0025000029127440764  0.9991710089241338  1.0000
  Al  Al7       1.0  0.0025000004706568174  2.850000073787979e-09  0.9991710089241338  1.0000
  Al  Al8       1.0  0.0025000004706568174  2.850000073787979e-09  0.999451921010823  1.0000
  Fe  Fe1       1.0  0.0025000004706568174  0.002500028443656333  0.9998844526226129  1.0000
  Fe  Fe2       1.0  4.000000015344049e-10  2.850000073787979e-09  0.9995923769130524  1.0000
  Fe  Fe3       1.0  0.0025000004706568174  0.0025000029127440764  0.9993114651085936  1.0000
  Fe  Fe4       1.0  4.000000015344049e-10  2.850000073787979e-09  0.9990305530219044  1.0000
  Ir  Ir1       1.0  0.010000000106563808  0.009999973465611888  0.9998727728003677  1.0000
  Ir  Ir2       1.0  0.0025000004706568174  0.0025000029127440764  0.9995923769130524  1.0000
  Ir  Ir3       1.0  4.000000015344049e-10  2.850000073787979e-09  0.9993114651085936  1.0000
  Ir  Ir4       1.0  0.0025000004706568174  0.0025000029127440764  0.9990305530219044  1.0000
  Al  Al9       1.0  9.000000233014669e-10  0.007500021170676459  0.9999999994355392  1.0000
  Al  Al10      1.0  1.5000000388357782e-09  0.007500010514295691  0.9997274851139503  1.0000
  Al  Al11      1.0  0.002499999360617154  0.0049999973891867115  0.9997274851139503  1.0000
  Al  Al12      1.0  0.002499999138609221  0.004999991616980463  0.0  1.0000
  Al  Al13      1.0  4.000000015344049e-10  0.007500003410041846  0.999451921010823  1.0000
  Al  Al14      1.0  4.000000015344049e-10  0.007500003410041846  0.9991710089241338  1.0000
  Al  Al15      1.0  0.0025000004706568174  0.005000003161392961  0.9991710089241338  1.0000
  Al  Al16      1.0  0.0025000004706568174  0.005000003161392961  0.999451921010823  1.0000
  Fe  Fe5       1.0  0.0025000004706568174  0.007500028274930305  0.9998844526226129  1.0000
  Fe  Fe6       1.0  4.000000015344049e-10  0.005000003161392961  0.9995923769130524  1.0000
  Fe  Fe7       1.0  0.0025000004706568174  0.007500003410041846  0.9993114651085936  1.0000
  Fe  Fe8       1.0  4.000000015344049e-10  0.005000003161392961  0.9990305530219044  1.0000
  Ir  Ir5       1.0  0.010000000106563808  0.004999973856345849  0.9998727728003677  1.0000
  Ir  Ir6       1.0  0.0025000004706568174  0.007500003410041846  0.9995923769130524  1.0000
  Ir  Ir7       1.0  4.000000015344049e-10  0.005000003161392961  0.9993114651085936  1.0000
  Ir  Ir8       1.0  0.0025000004706568174  0.007500003410041846  0.9990305530219044  1.0000
  Al  Al17      1.0  0.005000000941313635  0.0025000208953866224  0.9999999994355392  1.0000
  Al  Al18      1.0  0.005000001829345365  0.0025000100169979217  0.9997274851139503  1.0000
  Al  Al19      1.0  0.007499999857914923  0.009999997442468616  0.9997274851139503  1.0000
  Al  Al20      1.0  0.007499998969883193  0.0099999912262465  0.0  1.0000
  Al  Al21      1.0  0.005000000497297769  0.0025000029127440764  0.999451921010823  1.0000
  Al  Al22      1.0  0.005000000497297769  0.0025000029127440764  0.9991710089241338  1.0000
  Al  Al23      1.0  0.007500000745946654  2.850000073787979e-09  0.9991710089241338  1.0000
  Al  Al24      1.0  0.007500000745946654  2.850000073787979e-09  0.999451921010823  1.0000
  Fe  Fe9       1.0  0.007500000745946654  0.002500028443656333  0.9998844526226129  1.0000
  Fe  Fe10      1.0  0.005000000497297769  2.850000073787979e-09  0.9995923769130524  1.0000
  Fe  Fe11      1.0  0.007500000745946654  0.0025000029127440764  0.9993114651085936  1.0000
  Fe  Fe12      1.0  0.005000000497297769  2.850000073787979e-09  0.9990305530219044  1.0000
  Ir  Ir9       1.0  0.004999999609266038  0.009999973465611888  0.9998727728003677  1.0000
  Ir  Ir10      1.0  0.007500000745946654  0.0025000029127440764  0.9995923769130524  1.0000
  Ir  Ir11      1.0  0.005000000497297769  2.850000073787979e-09  0.9993114651085936  1.0000
  Ir  Ir12      1.0  0.007500000745946654  0.0025000029127440764  0.9990305530219044  1.0000
  Al  Al25      1.0  0.005000000941313635  0.007500021170676459  0.9999999994355392  1.0000
  Al  Al26      1.0  0.005000001829345365  0.007500010514295691  0.9997274851139503  1.0000
  Al  Al27      1.0  0.007499999857914923  0.0049999973891867115  0.9997274851139503  1.0000
  Al  Al28      1.0  0.007499998969883193  0.004999991616980463  0.0  1.0000
  Al  Al29      1.0  0.005000000497297769  0.007500003410041846  0.999451921010823  1.0000
  Al  Al30      1.0  0.005000000497297769  0.007500003410041846  0.9991710089241338  1.0000
  Al  Al31      1.0  0.007500000745946654  0.005000003161392961  0.9991710089241338  1.0000
  Al  Al32      1.0  0.007500000745946654  0.005000003161392961  0.999451921010823  1.0000
  Fe  Fe13      1.0  0.007500000745946654  0.007500028274930305  0.9998844526226129  1.0000
  Fe  Fe14      1.0  0.005000000497297769  0.005000003161392961  0.9995923769130524  1.0000
  Fe  Fe15      1.0  0.007500000745946654  0.007500003410041846  0.9993114651085936  1.0000
  Fe  Fe16      1.0  0.005000000497297769  0.005000003161392961  0.9990305530219044  1.0000
  Ir  Ir13      1.0  0.004999999609266038  0.004999973856345849  0.9998727728003677  1.0000
  Ir  Ir14      1.0  0.007500000745946654  0.007500003410041846  0.9995923769130524  1.0000
  Ir  Ir15      1.0  0.005000000497297769  0.005000003161392961  0.9993114651085936  1.0000
  Ir  Ir16      1.0  0.007500000745946654  0.007500003410041846  0.9990305530219044  1.0000
