data_image0
_chemical_formula_structural       COMn2Ru6Mn2Ru6
_chemical_formula_sum              "C1 O1 Mn4 Ru12"
_cell_length_a       5.362919330596924
_cell_length_b       5.3629193823272105
_cell_length_c       99.59101867675781
_cell_angle_alpha    90.0
_cell_angle_beta     90.0
_cell_angle_gamma    119.99999968091558

_space_group_name_H-M_alt    "P 1"
_space_group_IT_number       1

loop_
  _space_group_symop_operation_xyz
  'x, y, z'

loop_
  _atom_site_type_symbol
  _atom_site_label
  _atom_site_symmetry_multiplicity
  _atom_site_fract_x
  _atom_site_fract_y
  _atom_site_fract_z
  _atom_site_occupancy
  C   C1        1.0  0.0012573496690970248  0.004182866428675418  0.00017026979791925502  1.0000
  O   O1        1.0  0.0012573496690970248  0.004182866428675418  0.00029076223663000397  1.0000
  Mn  Mn1       1.0  0.00710687294160847  0.00333333322103941  0.9993700292185815  1.0000
  Mn  Mn2       1.0  0.00377353956510064  0.006666666843128546  0.9995822618372381  1.0000
  Ru  Ru1       1.0  0.008742650664472735  0.0016975558614784256  0.9995822618372381  1.0000
  Ru  Ru2       1.0  0.003835318206502477  0.0016975558614784256  0.9995822618372381  1.0000
  Ru  Ru3       1.0  0.008742650501694317  0.006604888341211105  0.9995822618372381  1.0000
  Ru  Ru4       1.0  0.0021377620892931997  0.008302444002164667  0.9993700292185815  1.0000
  Ru  Ru5       1.0  0.0070450943736038284  0.008302444002164667  0.9993700292185815  1.0000
  Ru  Ru6       1.0  0.0021377620918446067  0.003395111722956851  0.9993700292185815  1.0000
  Mn  Mn3       1.0  0.007106882623873271  0.0033333442499068793  0.9997988877024021  1.0000
  Mn  Mn4       1.0  0.003773502834160567  0.006666661629482106  0.9999927079469455  1.0000
  Ru  Ru7       1.0  0.008741196618648835  0.0016990712278687286  0.9999999982045175  1.0000
  Ru  Ru8       1.0  0.003838306015064397  0.001699039945990088  0.0  1.0000
  Ru  Ru9       1.0  0.008741150225575018  0.006601916963789971  0.9999999994015059  1.0000
  Ru  Ru10      1.0  0.0021428890595493154  0.008297290513183486  0.9997947769451463  1.0000
  Ru  Ru11      1.0  0.007034804531993634  0.008297313774067604  0.999794779339123  1.0000
  Ru  Ru12      1.0  0.002143033481987557  0.0034053906274383824  0.9997947745511696  1.0000
