data_image0
_chemical_formula_structural       HCo12Sb24
_chemical_formula_sum              "H1 Co12 Sb24"
_cell_length_a       9.219553216201831
_cell_length_b       6.880349264937683
_cell_length_c       108.96861267089844
_cell_angle_alpha    90.36285781509146
_cell_angle_beta     79.63413330649469
_cell_angle_gamma    68.36591090523052

_space_group_name_H-M_alt    "P 1"
_space_group_IT_number       1

loop_
  _space_group_symop_operation_xyz
  'x, y, z'

loop_
  _atom_site_type_symbol
  _atom_site_label
  _atom_site_symmetry_multiplicity
  _atom_site_fract_x
  _atom_site_fract_y
  _atom_site_fract_z
  _atom_site_occupancy
  H   H1        1.0  0.0044126610429380255  0.00290386100361735  0.9999643415763035  1.0000
  Co  Co1       1.0  0.0067007066344798505  0.0038840640247197423  0.9994618441128392  1.0000
  Co  Co2       1.0  0.0033673734261970944  0.0005507305793920998  0.9990644963406292  1.0000
  Co  Co3       1.0  6.375852621568471e-05  0.007295512843406105  0.9998433750284139  1.0000
  Co  Co4       1.0  0.008286641402876863  0.0011231660211197816  0.999054872334828  1.0000
  Co  Co5       1.0  0.005050372427523569  0.007886230430951921  0.9998380651301368  1.0000
  Co  Co6       1.0  0.0016199744632830323  0.004456499466447424  0.9994522205468805  1.0000
  Co  Co7       1.0  0.0032767145572056805  0.006128129350832835  0.9990554641834706  1.0000
  Co  Co8       1.0  0.009832938776112686  0.0027591251093376096  0.9998342293935285  1.0000
  Co  Co9       1.0  0.006610047786320891  0.009461462723120711  0.9994528119553342  1.0000
  Co  Co10      1.0  0.0016907798096411234  0.00888902728139303  0.9994624359611354  1.0000
  Co  Co11      1.0  0.008357446317634203  0.005555693909105154  0.9990650877556827  1.0000
  Co  Co12      1.0  0.005099116971798591  0.002078853901814733  0.9998501076020861  1.0000
  Sb  Sb1       1.0  0.00034393628807779066  0.0022536951811423615  0.9991288904004029  1.0000
  Sb  Sb2       1.0  0.007101046971420544  0.008845710609384915  0.9999211727392592  1.0000
  Sb  Sb3       1.0  0.003677269619885075  0.005587028553430237  0.9995262381707031  1.0000
  Sb  Sb4       1.0  0.006558564951355067  0.0017959580295502302  0.9992736790738457  1.0000
  Sb  Sb5       1.0  0.0032252311367141776  0.008462625212364584  0.9988763312581282  1.0000
  Sb  Sb6       1.0  0.009896201189481984  0.005138718060235814  0.9996704788342011  1.0000
  Sb  Sb7       1.0  0.009633484306817553  0.007758498486569284  0.9993884184520982  1.0000
  Sb  Sb8       1.0  0.006300151571800456  0.00442516482212234  0.9989910701256066  1.0000
  Sb  Sb9       1.0  0.0028559182653830452  0.0011845587937635586  0.9997977588005968  1.0000
  Sb  Sb10      1.0  0.003418856281995373  0.008216235199922813  0.9992436292217713  1.0000
  Sb  Sb11      1.0  8.552284749601381e-05  0.004882901827634938  0.9988462811795399  1.0000
  Sb  Sb12      1.0  0.0067521891501049446  0.0015495684553470624  0.9996409773255682  1.0000
  Sb  Sb13      1.0  0.009797333919318961  0.002515779394380898  0.9994030843978327  1.0000
  Sb  Sb14      1.0  0.006464000473781461  0.009182446723274784  0.99900573630306  1.0000
  Sb  Sb15      1.0  0.003136006130613205  0.0059323623243633175  0.9998103048119704  1.0000
  Sb  Sb16      1.0  0.009976094641312886  9.841025777381522e-05  0.9988283714571851  1.0000
  Sb  Sb17      1.0  0.00664276053569031  0.0067650770206095084  0.999623067447095  1.0000
  Sb  Sb18      1.0  0.003309427717343396  0.0034317436483216326  0.9992257196689779  1.0000
  Sb  Sb19      1.0  0.00018008735569638546  0.007496413689012613  0.9991142238970917  1.0000
  Sb  Sb20      1.0  0.006777682622129438  0.00419133852606732  0.9998984947193151  1.0000
  Sb  Sb21      1.0  0.003513420634574254  0.0008297469444368613  0.9995115719946351  1.0000
  Sb  Sb22      1.0  2.3905667393304662e-05  0.00990158984082987  0.9996860365219072  1.0000
  Sb  Sb23      1.0  0.006667992980244023  0.006580450019390013  0.9992915891819598  1.0000
  Sb  Sb24      1.0  0.003334660245226925  0.0032471163549430697  0.9988942408554683  1.0000
