data_image0
_chemical_formula_structural       HSn8Au24
_chemical_formula_sum              "H1 Sn8 Au24"
_cell_length_a       10.540380477905273
_cell_length_b       7.900453449625973
_cell_length_c       101.60181427001953
_cell_angle_alpha    100.75648727211724
_cell_angle_beta     90.0
_cell_angle_gamma    90.0

_space_group_name_H-M_alt    "P 1"
_space_group_IT_number       1

loop_
  _space_group_symop_operation_xyz
  'x, y, z'

loop_
  _atom_site_type_symbol
  _atom_site_label
  _atom_site_symmetry_multiplicity
  _atom_site_fract_x
  _atom_site_fract_y
  _atom_site_fract_z
  _atom_site_occupancy
  H   H1        1.0  0.008453982436151818  0.0053445202966923575  0.00017813554524073752  1.0000
  Sn  Sn1       1.0  0.003333333404019402  0.0012500000623950533  0.9994106781497701  1.0000
  Sn  Sn2       1.0  0.003414231489184692  0.006081553226136814  0.9997853193597158  1.0000
  Sn  Sn3       1.0  0.008333333333333333  0.008750000076793912  0.9996050755502249  1.0000
  Sn  Sn4       1.0  0.008453982436151818  0.004928033314980612  5.382390092358076e-05  1.0000
  Sn  Sn5       1.0  0.001666666702009701  0.00625000019198478  0.9994106780343209  1.0000
  Sn  Sn6       1.0  0.0015857869952223005  0.001082538578419977  0.9997852833251886  1.0000
  Sn  Sn7       1.0  0.006666666808038804  0.003750000067194673  0.9996050756674155  1.0000
  Sn  Sn8       1.0  0.0065478951272077805  0.009933601603137419  5.397880490725808e-05  1.0000
  Au  Au1       1.0  0.0016411720041434477  0.003750000067194673  0.9996050756674155  1.0000
  Au  Au2       1.0  0.0013892906802849881  0.00015561380323645793  5.499285841238674e-05  1.0000
  Au  Au3       1.0  0.006684884021691236  0.0010469090830579606  0.9997979734879515  1.0000
  Au  Au4       1.0  0.0066411717567422075  0.00625000019198478  0.9994106780343209  1.0000
  Au  Au5       1.0  0.004179413838884621  0.005019120973725915  0.9995063901419771  1.0000
  Au  Au6       1.0  0.0036917980098648347  0.0016655139212541096  0.9999664768481031  1.0000
  Au  Au7       1.0  0.009179413768198552  0.0025191210889167833  0.9997007874852296  1.0000
  Au  Au8       1.0  0.008988485748331356  0.00837247160652618  4.903726475366785e-05  1.0000
  Au  Au9       1.0  0.004179413838884621  0.002480878920682456  0.9997037611893711  1.0000
  Au  Au10      1.0  0.003850823993158946  0.008616996861033491  5.106653225264847e-05  1.0000
  Au  Au11      1.0  0.009012566371391166  0.0014667447592916333  0.9999553010808809  1.0000
  Au  Au12      1.0  0.009179413768198552  0.004980879045472563  0.9995093635562766  1.0000
  Au  Au13      1.0  0.003611830506795363  0.005155950926110004  5.497035440352569e-05  1.0000
  Au  Au14      1.0  0.0033588281018856556  0.008750000076793912  0.9996050755502249  1.0000
  Au  Au15      1.0  0.008358827677769243  0.0012500000623950533  0.9994106781497701  1.0000
  Au  Au16      1.0  0.00831395262698837  0.0060486983908050775  0.9997979444863525  1.0000
  Au  Au17      1.0  0.0011497797718977524  0.0036166263208092086  5.093543579293788e-05  1.0000
  Au  Au18      1.0  0.0008205860020717239  0.007480878930281694  0.9997037610721805  1.0000
  Au  Au19      1.0  0.005820586019743241  0.009980878815090827  0.999509363728928  1.0000
  Au  Au20      1.0  0.005988722377015288  0.006471792528714165  0.9999555546143447  1.0000
  Au  Au21      1.0  0.001308487579524655  0.006665429337559743  0.9999664482240489  1.0000
  Au  Au22      1.0  0.0008205860020717239  1.912099974885223e-05  0.9995063899663599  1.0000
  Au  Au23      1.0  0.006012454517755888  0.0033752292183080127  4.8983244882239895e-05  1.0000
  Au  Au24      1.0  0.005820586019743241  0.0075191208585350475  0.9997007873645564  1.0000
