data_image0
_chemical_formula_structural       In3Ni3In3Ni3CO
_chemical_formula_sum              "In6 Ni6 C1 O1"
_cell_length_a       5.333954811096191
_cell_length_b       5.333954855022523
_cell_length_c       101.00789642333984
_cell_angle_alpha    90.0
_cell_angle_beta     90.0
_cell_angle_gamma    119.99999972758087

_space_group_name_H-M_alt    "P 1"
_space_group_IT_number       1

loop_
  _space_group_symop_operation_xyz
  'x, y, z'

loop_
  _atom_site_type_symbol
  _atom_site_label
  _atom_site_symmetry_multiplicity
  _atom_site_fract_x
  _atom_site_fract_y
  _atom_site_fract_z
  _atom_site_occupancy
  In  In1       1.0  0.0066666675115522765  0.0033333342688211635  0.9993508071622442  1.0000
  In  In2       1.0  0.0033333341843443786  0.006666667731187301  0.9993508071622442  1.0000
  In  In3       1.0  8.000000350294546e-10  8.500000565191483e-10  0.9995700819985328  1.0000
  Ni  Ni1       1.0  8.352391786886896e-10  0.005000001000004232  0.9995700819985328  1.0000
  Ni  Ni2       1.0  0.0050000008631756005  0.005000001000004232  0.9995700819985328  1.0000
  Ni  Ni3       1.0  0.005000000802141724  8.500000565191483e-10  0.9995700819985328  1.0000
  In  In4       1.0  0.006666202637327894  0.003332822169879635  0.9997892609437563  1.0000
  In  In5       1.0  0.0033337975757535597  0.006667177813991265  0.9997892609437563  1.0000
  In  In6       1.0  0.00999999946905284  0.009999999580643387  2.9355058010211563e-05  1.0000
  Ni  Ni4       1.0  0.009999998874974457  0.004999996967729102  0.9999999244673456  1.0000
  Ni  Ni5       1.0  0.004999995045327064  0.004999994951591537  0.9999999846574296  1.0000
  Ni  Ni6       1.0  0.004999996602720163  0.00999999877418836  0.0  1.0000
  C   C1        1.0  0.006666202637327894  0.003332822169879635  0.9999872656665488  1.0000
  O   O1        1.0  0.006666202637327894  0.003332822169879635  0.00010606791012550732  1.0000
