data_image0
_chemical_formula_structural       HV12Sn4V12Sn4
_chemical_formula_sum              "H1 V24 Sn8"
_cell_length_a       5.671743869781494
_cell_length_b       12.219156721749224
_cell_length_c       101.79654693603516
_cell_angle_alpha    68.17695515640698
_cell_angle_beta     90.0
_cell_angle_gamma    62.34359793190336

_space_group_name_H-M_alt    "P 1"
_space_group_IT_number       1

loop_
  _space_group_symop_operation_xyz
  'x, y, z'

loop_
  _atom_site_type_symbol
  _atom_site_label
  _atom_site_symmetry_multiplicity
  _atom_site_fract_x
  _atom_site_fract_y
  _atom_site_fract_z
  _atom_site_occupancy
  H   H1        1.0  0.006008343187239325  0.009281759634575346  0.9997964845180151  1.0000
  V   V1        1.0  0.002883411471102623  0.004223989672988319  0.9989184034919464  1.0000
  V   V2        1.0  0.0028834116894124197  0.009223989612314284  0.9991415135548576  1.0000
  V   V3        1.0  0.001389161212991195  0.000718240101871823  0.9992979471715112  1.0000
  V   V4        1.0  0.0013891613399010933  0.0057182398041898475  0.9990748372299855  1.0000
  V   V5        1.0  0.006906409957243689  0.000718240101871823  0.9992979471715112  1.0000
  V   V6        1.0  0.006906410412561428  0.0057182398041898475  0.9990748372299855  1.0000
  V   V7        1.0  0.008400660543762957  0.004223989672988319  0.9989184034919464  1.0000
  V   V8        1.0  0.008400659448441396  0.009223989612314284  0.9991415135548576  1.0000
  V   V9        1.0  0.008400660275940578  0.0014653654044805297  0.9990414987991227  1.0000
  V   V10       1.0  0.008400659465028548  0.006465365059396966  0.9992646088747249  1.0000
  V   V11       1.0  0.0013891611050041459  0.0034768644177812  0.9991748518622198  1.0000
  V   V12       1.0  0.0013891617025266494  0.00847686397789446  0.9989517419270395  1.0000
  Sn  Sn1       1.0  0.0032282439506760045  0.001637781572109341  0.9990338052464491  1.0000
  Sn  Sn2       1.0  0.0032282439793794478  0.006637781701041661  0.9992569153008998  1.0000
  Sn  Sn3       1.0  0.006561577525071896  0.003304448155349212  0.9991825454191237  1.0000
  Sn  Sn4       1.0  0.0065615764297503355  0.008304448094675178  0.9989594354670221  1.0000
  V   V13       1.0  0.002883411471102623  0.004223989672988319  0.9993646235069592  1.0000
  V   V14       1.0  0.0029600165333293444  0.009182231467407802  0.9995902289780227  1.0000
  V   V15       1.0  0.0021326103363500815  0.0008610517496595216  0.9997260275995506  1.0000
  V   V16       1.0  0.0014393059816205905  0.005667370694776897  0.99952533577692  1.0000
  V   V17       1.0  0.0058768049698569086  0.000861356731479397  0.9997260180893449  1.0000
  V   V18       1.0  0.006954337920060123  0.0056679201739898285  0.9995253862055422  1.0000
  V   V19       1.0  0.008400660543762957  0.004223989672988319  0.9993646235069592  1.0000
  V   V20       1.0  0.008404134303393377  0.009182408938954835  0.9995902626313186  1.0000
  V   V21       1.0  0.008610838630347353  0.0012546294135626559  0.9995064216162457  1.0000
  V   V22       1.0  0.008456631711671636  0.006406257174704423  0.9996815806405094  1.0000
  V   V23       1.0  0.0015756514429845474  0.0032897589719178247  0.999618261039513  1.0000
  V   V24       1.0  0.0013891617025266494  0.00847686397789446  0.9993979616492886  1.0000
  Sn  Sn5       1.0  0.0032174819497482405  0.0016474952952141195  0.9994614188087988  1.0000
  Sn  Sn6       1.0  0.0032885904441866615  0.006575836546872826  0.999709172821706  1.0000
  Sn  Sn7       1.0  0.006659423741117574  0.0032059753371461866  0.9996621498161737  1.0000
  Sn  Sn8       1.0  0.0065615764297503355  0.008304448094675178  0.9994056551892713  1.0000
