data_image0
_chemical_formula_structural       COSr6
_chemical_formula_sum              "C1 O1 Sr6"
_cell_length_a       6.153820991516113
_cell_length_b       7.53686074869371
_cell_length_c       103.13934326171875
_cell_angle_alpha    94.34775345796221
_cell_angle_beta     90.0
_cell_angle_gamma    65.90515761744321

_space_group_name_H-M_alt    "P 1"
_space_group_IT_number       1

loop_
  _space_group_symop_operation_xyz
  'x, y, z'

loop_
  _atom_site_type_symbol
  _atom_site_label
  _atom_site_symmetry_multiplicity
  _atom_site_fract_x
  _atom_site_fract_y
  _atom_site_fract_z
  _atom_site_occupancy
  C   C1        1.0  0.005087212310023232  0.009287788064423364  0.000244694633893384  1.0000
  O   O1        1.0  0.005087212310023232  0.009287788064423364  0.00036104232371960966  1.0000
  Sr  Sr1       1.0  0.0064583333093385506  0.0065455460657927265  0.9996484770684821  1.0000
  Sr  Sr2       1.0  0.0022916666723911717  0.0048788790006846815  0.9999162320896328  1.0000
  Sr  Sr3       1.0  0.0006250001816287767  0.00821221258757162  0.9993807214664177  1.0000
  Sr  Sr4       1.0  0.009375000095990406  0.0007122124924890178  0.9997823545383784  1.0000
  Sr  Sr5       1.0  0.005208333418004382  0.009045545848461066  5.011022067225755e-05  1.0000
  Sr  Sr6       1.0  0.003541666563725341  0.002378879218016343  0.9995145992263946  1.0000
