data_image0
_chemical_formula_structural       COZn6Pd2Zn6Pd2Zn6Pd2Zn6Pd2
_chemical_formula_sum              "C1 O1 Zn24 Pd8"
_cell_length_a       7.596725940704346
_cell_length_b       7.596725940704346
_cell_length_c       103.29315948486328
_cell_angle_alpha    90.0
_cell_angle_beta     90.0
_cell_angle_gamma    90.0

_space_group_name_H-M_alt    "P 1"
_space_group_IT_number       1

loop_
  _space_group_symop_operation_xyz
  'x, y, z'

loop_
  _atom_site_type_symbol
  _atom_site_label
  _atom_site_symmetry_multiplicity
  _atom_site_fract_x
  _atom_site_fract_y
  _atom_site_fract_z
  _atom_site_occupancy
  C   C1        1.0  0.004999996586948025  0.004999998548472149  0.00012999116301757292  1.0000
  O   O1        1.0  0.004999996586948025  0.004999998548472149  0.0002461655968188119  1.0000
  Zn  Zn1       1.0  0.0025000034424748374  1.5499999772166652e-09  0.9993730561020696  1.0000
  Zn  Zn2       1.0  3.5500000873636556e-09  0.0025000014809507137  0.9993730561020696  1.0000
  Zn  Zn3       1.0  3.5500000873636556e-09  1.5499999772166652e-09  0.9995745042910246  1.0000
  Zn  Zn4       1.0  4.14999987488426e-09  0.002499999029045559  0.9997809941089123  1.0000
  Zn  Zn5       1.0  0.0025000009905696828  0.00999999807770636  0.9997809941089123  1.0000
  Zn  Zn6       1.0  0.0024999975579024663  0.0025000009905696828  0.0  1.0000
  Pd  Pd1       1.0  0.009999996116182236  0.00999999807770636  0.9999623080965719  1.0000
  Pd  Pd2       1.0  0.0025000034424748374  0.0025000014809507137  0.9995745042910246  1.0000
  Zn  Zn7       1.0  0.0025000034424748374  0.005000001490758335  0.9993730561020696  1.0000
  Zn  Zn8       1.0  3.5500000873636556e-09  0.0075000017457564705  0.9993730561020696  1.0000
  Zn  Zn9       1.0  3.5500000873636556e-09  0.005000001490758335  0.9995745042910246  1.0000
  Zn  Zn10      1.0  4.14999987488426e-09  0.007499998803470285  0.9997809941089123  1.0000
  Zn  Zn11      1.0  0.0025000009905696828  0.004999997567710087  0.9997809941089123  1.0000
  Zn  Zn12      1.0  0.0024999975579024663  0.007500000764994409  0.0  1.0000
  Pd  Pd3       1.0  0.009999996116182236  0.004999998548472149  0.9999623080965719  1.0000
  Pd  Pd4       1.0  0.0025000034424748374  0.0075000017457564705  0.9995745042910246  1.0000
  Zn  Zn13      1.0  0.007500003707280594  1.5499999772166652e-09  0.9993730561020696  1.0000
  Zn  Zn14      1.0  0.005000003452282458  0.0025000014809507137  0.9993730561020696  1.0000
  Zn  Zn15      1.0  0.005000003452282458  1.5499999772166652e-09  0.9995745042910246  1.0000
  Zn  Zn16      1.0  0.005000003942663489  0.002499999029045559  0.9997809941089123  1.0000
  Zn  Zn17      1.0  0.007500000764994409  0.00999999807770636  0.9997809941089123  1.0000
  Zn  Zn18      1.0  0.007499997332327192  0.0025000009905696828  0.0  1.0000
  Pd  Pd5       1.0  0.004999996586948025  0.00999999807770636  0.9999623080965719  1.0000
  Pd  Pd6       1.0  0.007500003707280594  0.0025000014809507137  0.9995745042910246  1.0000
  Zn  Zn19      1.0  0.007500003707280594  0.005000001490758335  0.9993730561020696  1.0000
  Zn  Zn20      1.0  0.005000003452282458  0.0075000017457564705  0.9993730561020696  1.0000
  Zn  Zn21      1.0  0.005000003452282458  0.005000001490758335  0.9995745042910246  1.0000
  Zn  Zn22      1.0  0.005000003942663489  0.007499998803470285  0.9997809941089123  1.0000
  Zn  Zn23      1.0  0.007500000764994409  0.004999997567710087  0.9997809941089123  1.0000
  Zn  Zn24      1.0  0.007499997332327192  0.007500000764994409  0.0  1.0000
  Pd  Pd7       1.0  0.004999996586948025  0.004999998548472149  0.9999623080965719  1.0000
  Pd  Pd8       1.0  0.007500003707280594  0.0075000017457564705  0.9995745042910246  1.0000
