data_image0
_chemical_formula_structural       COAl8Cu12Se24
_chemical_formula_sum              "C1 O1 Al8 Cu12 Se24"
_cell_length_a       17.491883695610387
_cell_length_b       7.8452253341674805
_cell_length_c       101.38090515136719
_cell_angle_alpha    90.0
_cell_angle_beta     77.04102650256937
_cell_angle_gamma    90.0

_space_group_name_H-M_alt    "P 1"
_space_group_IT_number       1

loop_
  _space_group_symop_operation_xyz
  'x, y, z'

loop_
  _atom_site_type_symbol
  _atom_site_label
  _atom_site_symmetry_multiplicity
  _atom_site_fract_x
  _atom_site_fract_y
  _atom_site_fract_z
  _atom_site_occupancy
  C   C1        1.0  0.0065995204894971175  0.000884995998740019  0.9997446524803647  1.0000
  O   O1        1.0  0.0065995204894971175  0.000884995998740019  0.9998630182051605  1.0000
  Al  Al1       1.0  0.0021910019568600414  0.007515860496163835  0.9989558018666134  1.0000
  Al  Al2       1.0  0.002232205421589482  0.002298072937275074  0.9993581166209354  1.0000
  Al  Al3       1.0  0.008955011338545921  0.002515860353709407  0.9990810084393147  1.0000
  Al  Al4       1.0  0.008922441236714398  0.0077866335997649  0.9994703426765323  1.0000
  Al  Al5       1.0  0.007191001895669265  1.5860301030946495e-05  0.9989558018101882  1.0000
  Al  Al6       1.0  0.007232331894182225  0.005234171717530874  0.9993582336636894  1.0000
  Al  Al7       1.0  0.003923329219774666  0.009745622736304164  0.9994704180261567  1.0000
  Al  Al8       1.0  0.0039550111811982105  0.005015860306224597  0.9990810082102316  1.0000
  Cu  Cu1       1.0  0.005381972213401426  0.00744015973813913  0.9995361512535942  1.0000
  Cu  Cu2       1.0  0.005573006756972224  0.002515860353709407  0.999211864382966  1.0000
  Cu  Cu3       1.0  0.0022014334544225365  0.002515860353709407  0.9989553982528914  1.0000
  Cu  Cu4       1.0  0.0023518882421035506  0.007959270322586722  0.9993835201614416  1.0000
  Cu  Cu5       1.0  0.008944580059521912  0.007515860496163835  0.9990814120445811  1.0000
  Cu  Cu6       1.0  0.009020726735504681  0.0028701497401175374  0.9994741423241925  1.0000
  Cu  Cu7       1.0  0.007351377675008977  0.009573071486139298  0.999383551909942  1.0000
  Cu  Cu8       1.0  0.007201433611770247  0.005015860306224597  0.9989553981880105  1.0000
  Cu  Cu9       1.0  0.003944579465097229  1.5860301030946495e-05  0.9990814118324094  1.0000
  Cu  Cu10      1.0  0.0040204538421261754  0.0046650268642460194  0.9994741020859812  1.0000
  Cu  Cu11      1.0  0.0003824002549001434  9.231140436874681e-05  0.9995361897219205  1.0000
  Cu  Cu12      1.0  0.0005730064903552707  0.005015860306224597  0.9992118644520748  1.0000
  Se  Se1       1.0  0.0063748935210562845  0.007497305806883154  0.9989930108836255  1.0000
  Se  Se2       1.0  0.006253064434069099  0.002880203936239981  0.9994045759498864  1.0000
  Se  Se3       1.0  0.0030730064597598826  0.002484139788745021  0.9991126799880286  1.0000
  Se  Se4       1.0  0.0031516261172526605  0.007156874387256019  0.9995257838750844  1.0000
  Se  Se5       1.0  0.009771119713158902  0.007588641413257333  0.999241454787252  1.0000
  Se  Se6       1.0  0.00022888035568072228  0.003063423123689039  0.9995644115604353  1.0000
  Se  Se7       1.0  0.004771119992888163  0.009943078819313386  0.9992414551291854  1.0000
  Se  Se8       1.0  0.005228754443639197  0.004468587905854565  0.9995643802158548  1.0000
  Se  Se9       1.0  0.0013748932544393314  3.4415001440879054e-05  0.9989930106587703  1.0000
  Se  Se10      1.0  0.0012533031392868224  0.004652825167617578  0.9994046240956906  1.0000
  Se  Se11      1.0  0.008151294970255268  0.00037646301172669655  0.9995256593478512  1.0000
  Se  Se12      1.0  0.008073006617107593  0.00504758110861303  0.9991126802171116  1.0000
  Se  Se13      1.0  0.004717725795782198  0.009756555638824917  0.9996360045466675  1.0000
  Se  Se14      1.0  0.004771119992888163  0.0050886416981661894  0.9992443265681872  1.0000
  Se  Se15      1.0  0.0014236591342149953  0.009856493118425442  0.9993387131550368  1.0000
  Se  Se16      1.0  0.0013748932544393314  0.004997305616943917  0.9989817465515152  1.0000
  Se  Se17      1.0  0.008073006617107593  0.00998413988371464  0.9991175894136031  1.0000
  Se  Se18      1.0  0.008053728900161605  0.005249005971993535  0.9995195724579372  1.0000
  Se  Se19      1.0  0.0063748935210562845  0.002534415042990087  0.9989817464824065  1.0000
  Se  Se20      1.0  0.0064237644085745746  0.007676010138652604  0.999338788687193  1.0000
  Se  Se21      1.0  0.0030730064597598826  0.007547580823704173  0.999117589478484  1.0000
  Se  Se22      1.0  0.0030547421057744734  0.002285202654530005  0.9995192608094516  1.0000
  Se  Se23      1.0  0.009771119713158902  0.0024430791991918617  0.9992443268141815  1.0000
  Se  Se24      1.0  0.00971819581087527  0.007774668852335462  0.999635722616547  1.0000
