data_image0
_chemical_formula_structural       HV4Pd8V4Pd8V4Pd8
_chemical_formula_sum              "H1 V12 Pd24"
_cell_length_a       8.134646902868615
_cell_length_b       8.811404646841991
_cell_length_c       103.08049774169922
_cell_angle_alpha    108.231479457058
_cell_angle_beta     109.80894251462306
_cell_angle_gamma    83.91392512649081

_space_group_name_H-M_alt    "P 1"
_space_group_IT_number       1

loop_
  _space_group_symop_operation_xyz
  'x, y, z'

loop_
  _atom_site_type_symbol
  _atom_site_label
  _atom_site_symmetry_multiplicity
  _atom_site_fract_x
  _atom_site_fract_y
  _atom_site_fract_z
  _atom_site_occupancy
  H   H1        1.0  0.004471430317519369  0.006361132486245117  0.00030822401367118453  1.0000
  V   V1        1.0  6.049745068723587e-05  1.621410010697902e-05  0.999599722685193  1.0000
  V   V2        1.0  0.005060497451143569  1.621410010697902e-05  0.9997334389539039  1.0000
  V   V3        1.0  0.002560497441408451  0.005016214113182546  0.9996665807733851  1.0000
  V   V4        1.0  0.007560497217500733  0.005016214113182546  0.9995328646952981  1.0000
  Pd  Pd1       1.0  0.002560497441408451  0.0016357262269615757  0.9995761755280799  1.0000
  Pd  Pd2       1.0  0.007560497217500733  0.0016357262269615757  0.9997098917907905  1.0000
  Pd  Pd3       1.0  6.049745068723587e-05  0.0033967019237321483  0.9996901279288243  1.0000
  Pd  Pd4       1.0  0.005060497451143569  0.0033967019237321483  0.9995564118567374  1.0000
  Pd  Pd5       1.0  6.049745068723587e-05  0.006635726080070094  0.9995093176329086  1.0000
  Pd  Pd6       1.0  0.005060497451143569  0.006635726080070094  0.9996430339016195  1.0000
  Pd  Pd7       1.0  0.002560497441408451  0.008396701665559243  0.9994895536689646  1.0000
  Pd  Pd8       1.0  0.007560497217500733  0.008396701665559243  0.9996232699316753  1.0000
  V   V5        1.0  6.049745068723587e-05  1.621410010697902e-05  0.9998671553151077  1.0000
  V   V6        1.0  0.005101979763228219  0.009983785779987285  1.5422602167901174e-05  1.0000
  V   V7        1.0  0.002560497441408451  0.005016214113182546  0.9999340134032998  1.0000
  V   V8        1.0  0.007560497217500733  0.005016214113182546  0.9998002970360957  1.0000
  Pd  Pd9       1.0  0.002560497441408451  0.0016357262269615757  0.9998436081579946  1.0000
  Pd  Pd10      1.0  0.007535103161723396  0.001630987196183548  0.9999746991507591  1.0000
  Pd  Pd11      1.0  6.049745068723587e-05  0.0033967019237321483  0.999957560558739  1.0000
  Pd  Pd12      1.0  0.005060497451143569  0.0033967019237321483  0.9998238441975351  1.0000
  Pd  Pd13      1.0  6.049745068723587e-05  0.006635726080070094  0.9997767499737064  1.0000
  Pd  Pd14      1.0  0.005060497451143569  0.006635726080070094  0.9999104662424171  1.0000
  Pd  Pd15      1.0  0.002560497441408451  0.008396701665559243  0.9997569860097624  1.0000
  Pd  Pd16      1.0  0.007560497217500733  0.008396701665559243  0.9998907022724729  1.0000
  V   V9        1.0  0.009891941200633839  0.009970409752665655  0.00011017087518917906  1.0000
  V   V10       1.0  0.0050711452366549595  0.009900644311262202  0.00022908966394183538  1.0000
  V   V11       1.0  0.0025253096133622268  0.004837640809996022  0.00016054006983853717  1.0000
  V   V12       1.0  0.007456366012624564  0.0049809476941263696  5.556557557142782e-05  1.0000
  Pd  Pd17      1.0  0.0025475728551322824  0.0016726112343488106  0.00012369524547467287  1.0000
  Pd  Pd18      1.0  0.007686701342586503  0.0015068165997928805  0.00024586458309373155  1.0000
  Pd  Pd19      1.0  0.00993950212051123  0.003539546989947481  0.00022157605014331742  1.0000
  Pd  Pd20      1.0  0.00515173935954698  0.003360069191336079  0.00010486282071616659  1.0000
  Pd  Pd21      1.0  0.00011465244906231808  0.006640815202212131  5.6998600676812515e-05  1.0000
  Pd  Pd22      1.0  0.004952405026679208  0.0066593773890786636  0.00017896606567952892  1.0000
  Pd  Pd23      1.0  0.0024793596121659755  0.008401986197884114  3.288097451147388e-05  1.0000
  Pd  Pd24      1.0  0.007591035309725355  0.008237828290531565  0.00015936394333610203  1.0000
