data_image0
_chemical_formula_structural       COIr12Rh4
_chemical_formula_sum              "C1 O1 Ir12 Rh4"
_cell_length_a       4.745000979324404
_cell_length_b       5.480545520782471
_cell_length_c       105.8294448852539
_cell_angle_alpha    90.0
_cell_angle_beta     92.55214571420767
_cell_angle_gamma    90.0

_space_group_name_H-M_alt    "P 1"
_space_group_IT_number       1

loop_
  _space_group_symop_operation_xyz
  'x, y, z'

loop_
  _atom_site_type_symbol
  _atom_site_label
  _atom_site_symmetry_multiplicity
  _atom_site_fract_x
  _atom_site_fract_y
  _atom_site_fract_z
  _atom_site_occupancy
  C   C1        1.0  0.009357131033954129  0.00749755057994767  0.00016942746534072913  1.0000
  O   O1        1.0  0.009357131033954129  0.00749755057994767  0.0002828171247787174  1.0000
  Ir  Ir1       1.0  0.00877916535645186  0.00750000032627032  0.999589950023578  1.0000
  Ir  Ir2       1.0  0.005654723093645  0.0024904918779027727  0.9997980291576977  1.0000
  Ir  Ir3       1.0  0.0019041660165888786  0.002500000278689232  0.9993783509018428  1.0000
  Ir  Ir4       1.0  0.002522578642877491  0.007492653806221705  5.0363245951009375e-06  1.0000
  Ir  Ir5       1.0  0.00877916535645186  0.002500000278689232  0.999589950023578  1.0000
  Ir  Ir6       1.0  0.005654723486583702  0.007509508387191863  0.9997980291584821  1.0000
  Ir  Ir7       1.0  0.0019041660165888786  0.00750000032627032  0.9993783509018428  1.0000
  Ir  Ir8       1.0  0.0025225782499387894  0.002507343739953593  5.03632381059939e-06  1.0000
  Ir  Ir9       1.0  0.0037791657651081094  0.005000000217513547  0.9995899499399118  1.0000
  Ir  Ir10      1.0  0.0006428686890240866  1.4499999590994313e-09  0.9997984244372691  1.0000
  Ir  Ir11      1.0  0.006904165607932629  4.4999999010086176e-10  0.9993783507039019  1.0000
  Ir  Ir12      1.0  0.007523434644121516  0.004999998858053878  3.3034183861107343e-06  1.0000
  Rh  Rh1       1.0  0.006904165607932629  0.005000000217513547  0.9993783507039019  1.0000
  Rh  Rh2       1.0  0.0037791657651081094  4.4999999010086176e-10  0.9995899499399118  1.0000
  Rh  Rh3       1.0  0.007537271587561882  0.009999999075567426  8.461361854144373e-06  1.0000
  Rh  Rh4       1.0  0.0006527153890664007  0.00499999987764863  0.9997961484351647  1.0000
