data_image0
_chemical_formula_structural       HSn4Pt4Sn4Pt4Sn4Pt4Sn4Pt4Sn4Pt4Sn4Pt4
_chemical_formula_sum              "H1 Sn24 Pt24"
_cell_length_a       11.85384955761581
_cell_length_b       8.406040784873108
_cell_length_c       107.82718658447266
_cell_angle_alpha    59.99999858153876
_cell_angle_beta     69.23290115106185
_cell_angle_gamma    79.78833827008509

_space_group_name_H-M_alt    "P 1"
_space_group_IT_number       1

loop_
  _space_group_symop_operation_xyz
  'x, y, z'

loop_
  _atom_site_type_symbol
  _atom_site_label
  _atom_site_symmetry_multiplicity
  _atom_site_fract_x
  _atom_site_fract_y
  _atom_site_fract_z
  _atom_site_occupancy
  H   H1        1.0  0.006387423394868397  0.009434883681020316  0.9996639511949436  1.0000
  Sn  Sn1       1.0  0.005625000336105351  0.002231783551957134  0.9993039562474251  1.0000
  Sn  Sn2       1.0  0.000625  0.002231783551957134  0.9994988524043372  1.0000
  Sn  Sn3       1.0  0.0031249999999999997  0.0038984502629734403  0.9995313351374661  1.0000
  Sn  Sn4       1.0  0.008125  0.0038984502629734403  0.999336438993655  1.0000
  Pt  Pt1       1.0  0.0043749999999999995  0.0005651169049066542  0.9996125418650181  1.0000
  Pt  Pt2       1.0  0.009375  0.0005651169049066542  0.9994176457212071  1.0000
  Pt  Pt3       1.0  0.001875  0.0005651169049066542  0.9993201975608568  1.0000
  Pt  Pt4       1.0  0.006875  0.0005651169049066542  0.9995150937931125  1.0000
  Sn  Sn5       1.0  0.005625000336105351  0.002231783551957134  0.9989141638713582  1.0000
  Sn  Sn6       1.0  0.000625  0.002231783551957134  0.9991090600282704  1.0000
  Sn  Sn7       1.0  0.0031249999999999997  0.0038984502629734403  0.9991415427613992  1.0000
  Sn  Sn8       1.0  0.008125  0.0038984502629734403  0.9989466466175881  1.0000
  Pt  Pt5       1.0  0.0043749999999999995  0.0005651169049066542  0.9992227494889513  1.0000
  Pt  Pt6       1.0  0.009375  0.0005651169049066542  0.9990278533451402  1.0000
  Pt  Pt7       1.0  0.001875  0.0005651169049066542  0.9989304051847899  1.0000
  Pt  Pt8       1.0  0.006875  0.0005651169049066542  0.9991253014170457  1.0000
  Sn  Sn9       1.0  0.005625000336105351  0.002231783551957134  0.9985243714952913  1.0000
  Sn  Sn10      1.0  0.000625  0.002231783551957134  0.9987192676522035  1.0000
  Sn  Sn11      1.0  0.0031249999999999997  0.0038984502629734403  0.9987517503853324  1.0000
  Sn  Sn12      1.0  0.008125  0.0038984502629734403  0.9985568542415213  1.0000
  Pt  Pt9       1.0  0.0043749999999999995  0.0005651169049066542  0.9988329571128844  1.0000
  Pt  Pt10      1.0  0.009375  0.0005651169049066542  0.9986380609690733  1.0000
  Pt  Pt11      1.0  0.001875  0.0005651169049066542  0.9985406130851128  1.0000
  Pt  Pt12      1.0  0.006875  0.0005651169049066542  0.9987355090409789  1.0000
  Sn  Sn13      1.0  0.005625000336105351  0.007231783940869359  0.9993039562764879  1.0000
  Sn  Sn14      1.0  0.000625  0.007231783940869359  0.9994988524334001  1.0000
  Sn  Sn15      1.0  0.0031249999999999997  0.008898449884295747  0.999531335196449  1.0000
  Sn  Sn16      1.0  0.008125  0.008898449884295747  0.9993364390526379  1.0000
  Pt  Pt13      1.0  0.0043749999999999995  0.005565116973989747  0.9996125419065477  1.0000
  Pt  Pt14      1.0  0.009375  0.005565116973989747  0.9994176457627366  1.0000
  Pt  Pt15      1.0  0.001875  0.005565116973989747  0.9993201976023863  1.0000
  Pt  Pt16      1.0  0.006875  0.005565116973989747  0.9995150938346421  1.0000
  Sn  Sn17      1.0  0.005625000336105351  0.007231783940869359  0.9989141639004211  1.0000
  Sn  Sn18      1.0  0.000625  0.007231783940869359  0.9991090600573332  1.0000
  Sn  Sn19      1.0  0.0031249999999999997  0.008898449884295747  0.9991415428203821  1.0000
  Sn  Sn20      1.0  0.008125  0.008898449884295747  0.9989466466765711  1.0000
  Pt  Pt17      1.0  0.0043749999999999995  0.005565116973989747  0.9992227495304808  1.0000
  Pt  Pt18      1.0  0.009375  0.005565116973989747  0.9990278533866697  1.0000
  Pt  Pt19      1.0  0.001875  0.005565116973989747  0.9989304052263195  1.0000
  Pt  Pt20      1.0  0.006875  0.005565116973989747  0.9991253014585753  1.0000
  Sn  Sn21      1.0  0.005625000336105351  0.007231783940869359  0.9985243715243541  1.0000
  Sn  Sn22      1.0  0.000625  0.007231783940869359  0.9987192676812664  1.0000
  Sn  Sn23      1.0  0.0031249999999999997  0.008898449884295747  0.9987517504443153  1.0000
  Sn  Sn24      1.0  0.008125  0.008898449884295747  0.9985568543005042  1.0000
  Pt  Pt21      1.0  0.0043749999999999995  0.005565116973989747  0.9988329571544139  1.0000
  Pt  Pt22      1.0  0.009375  0.005565116973989747  0.9986380610106028  1.0000
  Pt  Pt23      1.0  0.001875  0.005565116973989747  0.9985406128502526  1.0000
  Pt  Pt24      1.0  0.006875  0.005565116973989747  0.9987355090825084  1.0000
