data_image0
_chemical_formula_structural       HSn6Se6Sn6Se6
_chemical_formula_sum              "H1 Sn12 Se12"
_cell_length_a       9.742797561428972
_cell_length_b       12.936715976336226
_cell_length_c       106.97132110595703
_cell_angle_alpha    103.77767030125176
_cell_angle_beta     71.56505117707799
_cell_angle_gamma    81.33700137752771

_space_group_name_H-M_alt    "P 1"
_space_group_IT_number       1

loop_
  _space_group_symop_operation_xyz
  'x, y, z'

loop_
  _atom_site_type_symbol
  _atom_site_label
  _atom_site_symmetry_multiplicity
  _atom_site_fract_x
  _atom_site_fract_y
  _atom_site_fract_z
  _atom_site_occupancy
  H   H1        1.0  0.0006085814916937028  0.006351098908530249  0.00011328905161514076  1.0000
  Sn  Sn1       1.0  0.0070454915878956255  0.0036489015073993586  0.9993335508804523  1.0000
  Sn  Sn2       1.0  0.00037882486480244406  0.0036489015073993586  0.9995255614182194  1.0000
  Sn  Sn3       1.0  0.0037121581255874017  0.0036489015073993586  0.999141540615482  1.0000
  Sn  Sn4       1.0  0.009620259565515826  0.005924597961463427  0.9993249371479148  1.0000
  Sn  Sn5       1.0  0.002953592640899379  0.005924597961463427  0.9995169476914861  1.0000
  Sn  Sn6       1.0  0.006286926103207602  0.005924597961463427  0.9991329268829445  1.0000
  Se  Se1       1.0  0.006295689169138715  0.0058983087636700895  0.9994199328591079  1.0000
  Se  Se2       1.0  0.009629022631446939  0.0058983087636700895  0.9990359120505663  1.0000
  Se  Se3       1.0  0.0029623557068304916  0.0058983087636700895  0.9992279225941376  1.0000
  Se  Se4       1.0  0.00037006190081486257  0.003675190399362103  0.9992385554303115  1.0000
  Se  Se5       1.0  0.00370339516159982  0.003675190399362103  0.9994305657010859  1.0000
  Se  Se6       1.0  0.007036728623908043  0.003675190399362103  0.9990465446139434  1.0000
  Sn  Sn7       1.0  0.0069858472859670485  0.003705210730392746  0.9998914592882439  1.0000
  Sn  Sn8       1.0  0.0004007707334661191  0.004352832395478945  8.24718596132752e-05  1.0000
  Sn  Sn9       1.0  0.0037121581255874017  0.0036489015073993586  0.9997175722461958  1.0000
  Sn  Sn10      1.0  0.009629938052535973  0.005928110119995986  0.9998933815050952  1.0000
  Sn  Sn11      1.0  0.0030049071043629486  0.005907496526351656  6.828279133864539e-05  1.0000
  Sn  Sn12      1.0  0.006286926103207602  0.005924597961463427  0.9997089585136585  1.0000
  Se  Se7       1.0  0.006162208894761774  0.00589401429048007  2.3353193047719717e-07  1.0000
  Se  Se8       1.0  0.009629022631446939  0.0058983087636700895  0.9996119436812803  1.0000
  Se  Se9       1.0  0.0029623557068304916  0.0058983087636700895  0.9998039542248515  1.0000
  Se  Se10      1.0  0.00037006190081486257  0.003675190399362103  0.9998145870610254  1.0000
  Se  Se11      1.0  0.0034435005913921054  0.003688485161080044  1.1223814494917816e-05  1.0000
  Se  Se12      1.0  0.007036728623908043  0.003675190399362103  0.9996225765232583  1.0000
