data_image0
_chemical_formula_structural       HAl16Cu8Al16Cu8
_chemical_formula_sum              "H1 Al32 Cu16"
_cell_length_a       6.136849880218506
_cell_length_b       13.202303510519844
_cell_length_c       104.04700469970703
_cell_angle_alpha    68.38242225243434
_cell_angle_beta     90.0
_cell_angle_gamma    90.0

_space_group_name_H-M_alt    "P 1"
_space_group_IT_number       1

loop_
  _space_group_symop_operation_xyz
  'x, y, z'

loop_
  _atom_site_type_symbol
  _atom_site_label
  _atom_site_symmetry_multiplicity
  _atom_site_fract_x
  _atom_site_fract_y
  _atom_site_fract_z
  _atom_site_occupancy
  H   H1        1.0  0.0032880564303028764  0.0069121887642622434  0.9996768777442392  1.0000
  Al  Al1       1.0  0.009211943144771754  0.002105971718074575  0.9988599139301277  1.0000
  Al  Al2       1.0  0.009211943144771754  0.0071059717302153  0.9990936473634717  1.0000
  Al  Al3       1.0  0.009211943144771754  0.003682084566539603  0.9990199692116207  1.0000
  Al  Al4       1.0  0.009211943144771754  0.00868208488219845  0.9987862355223508  1.0000
  Al  Al5       1.0  0.0023641694244566024  0.002105971718074575  0.9990936473411247  1.0000
  Al  Al6       1.0  0.0023641694244566024  0.0071059717302153  0.9988599136660433  1.0000
  Al  Al7       1.0  0.0023641694244566024  0.003682084566539603  0.9987862358006236  1.0000
  Al  Al8       1.0  0.0023641694244566024  0.00868208488219845  0.9990199692197792  1.0000
  Al  Al9       1.0  0.00421194343614915  0.004605971572385877  0.9989767805106783  1.0000
  Al  Al10      1.0  0.00421194343614915  0.009605971584526602  0.9992105142304536  1.0000
  Al  Al11      1.0  0.00421194343614915  0.0011820847122283012  0.9989031026310702  1.0000
  Al  Al12      1.0  0.00421194343614915  0.0061820844208509045  0.9991368360786026  1.0000
  Al  Al13      1.0  0.007364169133079206  0.004605971572385877  0.9992105142081067  1.0000
  Al  Al14      1.0  0.007364169133079206  0.009605971584526602  0.9989767805330253  1.0000
  Al  Al15      1.0  0.007364169133079206  0.0011820847122283012  0.9991368360420672  1.0000
  Al  Al16      1.0  0.007364169133079206  0.0061820844208509045  0.9989031023811743  1.0000
  Cu  Cu1       1.0  0.0057880565881322996  0.0028940282940661498  0.9989399414205643  1.0000
  Cu  Cu2       1.0  0.0057880565881322996  0.007894028002688753  0.9991736751545282  1.0000
  Cu  Cu3       1.0  0.0057880565881322996  0.0028940282940661498  0.9991736751179927  1.0000
  Cu  Cu4       1.0  0.0057880565881322996  0.007894028002688753  0.9989399414570997  1.0000
  Cu  Cu5       1.0  0.0007880565001120443  0.005394028148377451  0.9990568082875462  1.0000
  Cu  Cu6       1.0  0.0007880565001120443  0.00039402825005602216  0.9988230748488816  1.0000
  Cu  Cu7       1.0  0.0007880565001120443  0.005394028148377451  0.9988230745901179  1.0000
  Cu  Cu8       1.0  0.0007880565001120443  0.00039402825005602216  0.9990568082598785  1.0000
  Al  Al17      1.0  0.009211943144771754  0.002105971718074575  0.9993273810385531  1.0000
  Al  Al18      1.0  0.009211943144771754  0.0071059717302153  0.9995611147583284  1.0000
  Al  Al19      1.0  0.009211943144771754  0.003682084566539603  0.9994874366064774  1.0000
  Al  Al20      1.0  0.009211943144771754  0.00868208488219845  0.9992537029172075  1.0000
  Al  Al21      1.0  0.0023641694244566024  0.002105971718074575  0.9995611147359814  1.0000
  Al  Al22      1.0  0.0023641694244566024  0.0071059717302153  0.9993273810609  1.0000
  Al  Al23      1.0  0.0023641694244566024  0.003682084566539603  0.999253702909049  1.0000
  Al  Al24      1.0  0.0023641694244566024  0.00868208488219845  0.9994874366146359  1.0000
  Al  Al25      1.0  0.00421194343614915  0.004605971572385877  0.999444247905535  1.0000
  Al  Al26      1.0  0.00421194343614915  0.009605971584526602  0.9996779816253103  1.0000
  Al  Al27      1.0  0.00421194343614915  0.0011820847122283012  0.9993705697394955  1.0000
  Al  Al28      1.0  0.00421194343614915  0.0061820844208509045  0.9996043034734593  1.0000
  Al  Al29      1.0  0.007364169133079206  0.004605971572385877  0.9996779816029634  1.0000
  Al  Al30      1.0  0.007364169133079206  0.009605971584526602  0.999444247927882  1.0000
  Al  Al31      1.0  0.007364169133079206  0.0011820847122283012  0.9996043034369239  1.0000
  Al  Al32      1.0  0.007364169133079206  0.0061820844208509045  0.999370569776031  1.0000
  Cu  Cu9       1.0  0.0057880565881322996  0.0028940282940661498  0.999407408815421  1.0000
  Cu  Cu10      1.0  0.0057880565881322996  0.007894028002688753  0.9996411425493849  1.0000
  Cu  Cu11      1.0  0.0057880565881322996  0.0028940282940661498  0.9996411425128493  1.0000
  Cu  Cu12      1.0  0.0057880565881322996  0.007894028002688753  0.9994074088519564  1.0000
  Cu  Cu13      1.0  0.0007880565001120443  0.005394028148377451  0.9995242756824029  1.0000
  Cu  Cu14      1.0  0.0007880565001120443  0.00039402825005602216  0.9992905419573069  1.0000
  Cu  Cu15      1.0  0.0007880565001120443  0.005394028148377451  0.9992905419849746  1.0000
  Cu  Cu16      1.0  0.0007880565001120443  0.00039402825005602216  0.9995242756547352  1.0000
