data_image0
_chemical_formula_structural       HCr3Co3Pt6Cr3Co3Pt6
_chemical_formula_sum              "H1 Cr6 Co6 Pt12"
_cell_length_a       5.381418704986572
_cell_length_b       5.338300772426183
_cell_length_c       109.33423614501953
_cell_angle_alpha    90.75675757419278
_cell_angle_beta     90.0
_cell_angle_gamma    59.732450404020895

_space_group_name_H-M_alt    "P 1"
_space_group_IT_number       1

loop_
  _space_group_symop_operation_xyz
  'x, y, z'

loop_
  _atom_site_type_symbol
  _atom_site_label
  _atom_site_symmetry_multiplicity
  _atom_site_fract_x
  _atom_site_fract_y
  _atom_site_fract_z
  _atom_site_occupancy
  H   H1        1.0  0.002552817913766951  0.005768940531716201  0.00011639002288273756  1.0000
  Cr  Cr1       1.0  0.006686904349727174  0.0075000000646464095  0.9990009827995802  1.0000
  Cr  Cr2       1.0  2.0237173987195358e-05  0.0008333333292929327  0.9994007175392141  1.0000
  Cr  Cr3       1.0  0.003353570808827724  0.004166666343434619  0.9992008504417491  1.0000
  Co  Co1       1.0  0.008353570518082474  0.004166666343434619  0.9992008504417491  1.0000
  Co  Co2       1.0  0.0016869039482218292  0.0075000000646464095  0.9990009827995802  1.0000
  Co  Co3       1.0  0.005020237315898567  0.0008333333292929327  0.9994007175392141  1.0000
  Pt  Pt1       1.0  0.0033535706035236674  0.009166666117172186  0.9992008501424468  1.0000
  Pt  Pt2       1.0  0.006686904410925963  0.0024999998868687834  0.9990009828260421  1.0000
  Pt  Pt3       1.0  2.023735083475288e-05  0.005833333204040514  0.9994007177851367  1.0000
  Pt  Pt4       1.0  0.008353570658903716  0.009166666117172186  0.9992008501424468  1.0000
  Pt  Pt5       1.0  0.0016869040094206183  0.0024999998868687834  0.9990009828260421  1.0000
  Pt  Pt6       1.0  0.005020237060089503  0.005833333204040514  0.9994007177851367  1.0000
  Cr  Cr4       1.0  0.006686904349727174  0.0075000000646464095  0.9996005851285243  1.0000
  Cr  Cr5       1.0  0.00997976310836198  0.0009158110366897335  0.999992497129551  1.0000
  Cr  Cr6       1.0  0.003418278027810478  0.004039195745138823  0.9998172061984758  1.0000
  Co  Co4       1.0  0.008384985719584029  0.004102639731403995  0.9998018801430701  1.0000
  Co  Co5       1.0  0.0016869039482218292  0.0075000000646464095  0.9996005851285243  1.0000
  Co  Co6       1.0  0.004963511669844804  0.000943867477394702  0.9999904397982876  1.0000
  Pt  Pt7       1.0  0.0033911068342840833  0.009088772042227656  0.9997987356863643  1.0000
  Pt  Pt8       1.0  0.006686904410925963  0.0024999998868687834  0.9996005848824063  1.0000
  Pt  Pt9       1.0  9.370940966029048e-05  0.005712444014269996  3.687022562097358e-06  1.0000
  Pt  Pt10      1.0  0.008395923883463089  0.009088270224474055  0.9997987337272801  1.0000
  Pt  Pt11      1.0  0.0016869040094206183  0.0024999998868687834  0.9996005848824063  1.0000
  Pt  Pt12      1.0  0.005069380568175024  0.005710528056308987  3.682516069482714e-06  1.0000
