data_image0
_chemical_formula_structural       COCo8Sn16Co8Sn16
_chemical_formula_sum              "C1 O1 Co16 Sn32"
_cell_length_a       13.998915662332763
_cell_length_b       6.434584617614746
_cell_length_c       103.05674743652344
_cell_angle_alpha    90.0
_cell_angle_beta     113.17639258008204
_cell_angle_gamma    90.0

_space_group_name_H-M_alt    "P 1"
_space_group_IT_number       1

loop_
  _space_group_symop_operation_xyz
  'x, y, z'

loop_
  _atom_site_type_symbol
  _atom_site_label
  _atom_site_symmetry_multiplicity
  _atom_site_fract_x
  _atom_site_fract_y
  _atom_site_fract_z
  _atom_site_occupancy
  C   C1        1.0  0.0017796934367650139  0.0016561739991720209  0.00018282190455765228  1.0000
  O   O1        1.0  0.0017796934367650139  0.0016561739991720209  0.000299262842363169  1.0000
  Co  Co1       1.0  0.005414043808082848  0.0008280869995860104  2.2135420928245744e-05  1.0000
  Co  Co2       1.0  0.0004140434997930052  0.0008280869995860104  0.9997548332759963  1.0000
  Co  Co3       1.0  0.002914043599661546  0.005828087199323092  0.9998884843455607  1.0000
  Co  Co4       1.0  0.00791404343755609  0.005828087199323092  0.9996211819770969  1.0000
  Co  Co5       1.0  0.002914043599661546  0.005828087199323092  0.9996211821014366  1.0000
  Co  Co6       1.0  0.00791404343755609  0.005828087199323092  0.999888484221221  1.0000
  Co  Co7       1.0  0.005414043808082848  0.0008280869995860104  0.9997548331768042  1.0000
  Co  Co8       1.0  0.0004140434997930052  0.0008280869995860104  2.2134941753161472e-05  1.0000
  Sn  Sn1       1.0  0.003742130671616064  0.0024842609263895235  0.9997991028216902  1.0000
  Sn  Sn2       1.0  0.008742130798984638  0.0024842609263895235  6.640495694997308e-05  1.0000
  Sn  Sn3       1.0  0.003742130671616064  0.009171913472256661  6.640506581423938e-05  1.0000
  Sn  Sn4       1.0  0.008742130798984638  0.009171913472256661  0.9997991030020096  1.0000
  Sn  Sn5       1.0  0.004585956736128331  0.0041719130554140555  0.00011151636643148438  1.0000
  Sn  Sn6       1.0  0.009585956863496904  0.0041719130554140555  0.9998442143026268  1.0000
  Sn  Sn7       1.0  0.004585956736128331  0.007484261343232128  0.9998442141223074  1.0000
  Sn  Sn8       1.0  0.009585956863496904  0.007484261343232128  0.00011151625756721808  1.0000
  Sn  Sn9       1.0  0.0012421304631947618  0.007484261343232128  0.9999327539904467  1.0000
  Sn  Sn10      1.0  0.0062421305905633355  0.007484261343232128  0.9996654519266419  1.0000
  Sn  Sn11      1.0  0.0012421304631947618  0.0041719130554140555  0.9996654517463226  1.0000
  Sn  Sn12      1.0  0.0062421305905633355  0.0041719130554140555  0.9999327538815824  1.0000
  Sn  Sn13      1.0  0.0020859565277070277  0.009171913472256661  0.9997105630469398  1.0000
  Sn  Sn14      1.0  0.007085956655075601  0.009171913472256661  0.9999778651821997  1.0000
  Sn  Sn15      1.0  0.0020859565277070277  0.0024842609263895235  0.9999778652910639  1.0000
  Sn  Sn16      1.0  0.007085956655075601  0.0024842609263895235  0.9997105632272592  1.0000
  Co  Co9       1.0  0.005414043808082848  0.0008280869995860104  0.9994875309326802  1.0000
  Co  Co10      1.0  0.0004140434997930052  0.0008280869995860104  0.9992202287877482  1.0000
  Co  Co11      1.0  0.002914043599661546  0.005828087199323092  0.9993538798573126  1.0000
  Co  Co12      1.0  0.00791404343755609  0.005828087199323092  0.9990865777780324  1.0000
  Co  Co13      1.0  0.002914043599661546  0.005828087199323092  0.9990865776131885  1.0000
  Co  Co14      1.0  0.00791404343755609  0.005828087199323092  0.9993538797329728  1.0000
  Co  Co15      1.0  0.005414043808082848  0.0008280869995860104  0.9992202286885561  1.0000
  Co  Co16      1.0  0.0004140434997930052  0.0008280869995860104  0.9994875310318723  1.0000
  Sn  Sn17      1.0  0.003742130671616064  0.0024842609263895235  0.9992644986226257  1.0000
  Sn  Sn18      1.0  0.008742130798984638  0.0024842609263895235  0.9995318007578855  1.0000
  Sn  Sn19      1.0  0.003742130671616064  0.009171913472256661  0.9995318008667498  1.0000
  Sn  Sn20      1.0  0.008742130798984638  0.009171913472256661  0.9992644988029451  1.0000
  Sn  Sn21      1.0  0.004585956736128331  0.0041719130554140555  0.999576912167367  1.0000
  Sn  Sn22      1.0  0.009585956863496904  0.0041719130554140555  0.9993096101035623  1.0000
  Sn  Sn23      1.0  0.004585956736128331  0.007484261343232128  0.9993096099232429  1.0000
  Sn  Sn24      1.0  0.009585956863496904  0.007484261343232128  0.9995769120585027  1.0000
  Sn  Sn25      1.0  0.0012421304631947618  0.007484261343232128  0.9993981497913822  1.0000
  Sn  Sn26      1.0  0.0062421305905633355  0.007484261343232128  0.9991308477275774  1.0000
  Sn  Sn27      1.0  0.0012421304631947618  0.0041719130554140555  0.9991308475472581  1.0000
  Sn  Sn28      1.0  0.0062421305905633355  0.0041719130554140555  0.9993981496825179  1.0000
  Sn  Sn29      1.0  0.0020859565277070277  0.009171913472256661  0.9991759588478754  1.0000
  Sn  Sn30      1.0  0.007085956655075601  0.009171913472256661  0.9994432609831352  1.0000
  Sn  Sn31      1.0  0.0020859565277070277  0.0024842609263895235  0.9994432610919994  1.0000
  Sn  Sn32      1.0  0.007085956655075601  0.0024842609263895235  0.9991759590281947  1.0000
