data_image0
_chemical_formula_structural       In10Pt10CO
_chemical_formula_sum              "In10 Pt10 C1 O1"
_cell_length_a       7.107274825088983
_cell_length_b       7.3255810158511085
_cell_length_c       40.682655334472656
_cell_angle_alpha    91.12689023883335
_cell_angle_beta     90.29503968729308
_cell_angle_gamma    65.31506997432804

_space_group_name_H-M_alt    "P 1"
_space_group_IT_number       1

loop_
  _space_group_symop_operation_xyz
  'x, y, z'

loop_
  _atom_site_type_symbol
  _atom_site_label
  _atom_site_symmetry_multiplicity
  _atom_site_fract_x
  _atom_site_fract_y
  _atom_site_fract_z
  _atom_site_occupancy
  In  In1       1.0  0.0005540628118387741  0.0014140099506497928  5.505880742964755e-06  1.0000
  In  In2       1.0  0.0008627015596868083  0.006803448916713689  0.9995937116566063  1.0000
  In  In3       1.0  0.009445936447915497  0.0032711613644302337  0.9992711648774686  1.0000
  In  In4       1.0  0.0056535610142471006  0.008452763522046377  0.9998100196168537  1.0000
  In  In5       1.0  0.005603733878289812  0.0040947021858290565  6.252591304573365e-05  1.0000
  In  In6       1.0  0.009420876397171572  0.00931496079300678  0.998909722159762  1.0000
  In  In7       1.0  0.009395816734509463  0.005358760781363356  0.9985482792136319  1.0000
  In  In8       1.0  0.008017365730349757  0.0018425899958352367  0.9982416865255537  1.0000
  In  In9       1.0  0.004360390749030162  0.006568169452132091  0.9987780427210822  1.0000
  In  In10      1.0  0.004481362768856344  0.002061752693661499  0.9990414015186626  1.0000
  Pt  Pt1       1.0  0.005158833811334905  0.005024754592435357  0.9993946848025885  1.0000
  Pt  Pt2       1.0  0.0030956174287897404  0.00274591556501957  0.9996855736155071  1.0000
  Pt  Pt3       1.0  0.007309316552584745  0.007293617500067174  0.9991579149832376  1.0000
  Pt  Pt4       1.0  0.007783194918559841  0.0006823123785277338  0.9995824547521764  1.0000
  Pt  Pt5       1.0  0.002718593355788923  0.00931223466426633  0.9993123775738213  1.0000
  Pt  Pt6       1.0  0.0037065909061152905  0.0036006753186267927  0.9983949827600838  1.0000
  Pt  Pt7       1.0  0.0015324368342620944  0.0013363046457264154  0.9986615292563893  1.0000
  Pt  Pt8       1.0  0.005880745371087487  0.0058650459915271696  0.9981284366304097  1.0000
  Pt  Pt9       1.0  0.006123160057265849  0.00931768748152726  0.9985070668965844  1.0000
  Pt  Pt10      1.0  0.0012900221742916653  0.007883663155726327  0.9982828988547154  1.0000
  C   C1        1.0  0.001134752105727669  0.004273508801981174  8.426537604036192e-06  1.0000
  O   O1        1.0  0.001134752105727669  0.004273508801981174  0.0003033927663045902  1.0000
