data_image0
_chemical_formula_structural       HAl12W6
_chemical_formula_sum              "H1 Al12 W6"
_cell_length_a       4.887740443844869
_cell_length_b       8.38046080125166
_cell_length_c       103.52184295654297
_cell_angle_alpha    60.674978720391714
_cell_angle_beta     73.04531596549627
_cell_angle_gamma    73.04531680548438

_space_group_name_H-M_alt    "P 1"
_space_group_IT_number       1

loop_
  _space_group_symop_operation_xyz
  'x, y, z'

loop_
  _atom_site_type_symbol
  _atom_site_label
  _atom_site_symmetry_multiplicity
  _atom_site_fract_x
  _atom_site_fract_y
  _atom_site_fract_z
  _atom_site_occupancy
  H   H1        1.0  0.0005512268414418069  0.008785047587100693  0.9998142600497881  1.0000
  Al  Al1       1.0  0.0066384962019573395  0.009995304755426941  0.9989658469507541  1.0000
  Al  Al2       1.0  0.001638496036645128  0.004995304548158829  0.9993706145293813  1.0000
  Al  Al3       1.0  0.005833333391249318  0.002485914680817054  0.9993039135809246  1.0000
  Al  Al4       1.0  0.00035117872097028955  0.008096396689447366  0.9996923496815784  1.0000
  Al  Al5       1.0  0.009971829187369654  0.008347418583426908  0.9993690943834108  1.0000
  Al  Al6       1.0  0.004971829348218115  0.003347418635243936  0.9989643267304008  1.0000
  Al  Al7       1.0  0.0066948374637537346  0.00668075184767087  0.9992341715928367  1.0000
  Al  Al8       1.0  0.0020947893170743252  0.0016050710568982474  0.9996427014191717  1.0000
  Al  Al9       1.0  0.0007141628038581165  0.0010065324976296817  0.9994290683270027  1.0000
  Al  Al10      1.0  0.005833333012496771  0.005856808761670852  0.9990310276940022  1.0000
  Al  Al11      1.0  2.8170828182817758e-05  0.001661971465274466  0.9991007695970358  1.0000
  Al  Al12      1.0  0.004405080328830111  0.006683682100624191  0.9995052756103127  1.0000
  W   W1        1.0  0.004999999966752196  4.695150047462843e-06  0.9992349319973198  1.0000
  W   W2        1.0  0.009199538844397167  0.005020279837654348  0.9996218956858239  1.0000
  W   W3        1.0  0.0008333334329458311  0.004171361721243954  0.9991674704385205  1.0000
  W   W4        1.0  0.005760425567044396  0.009002004448471157  0.9995637754904709  1.0000
  W   W5        1.0  0.0016666668647276456  0.008338028301548906  0.9991000093634795  1.0000
  W   W6        1.0  0.006832313586873465  0.003436398836330485  0.9995251652654717  1.0000
