data_image0
_chemical_formula_structural       HAg12As12Se12
_chemical_formula_sum              "H1 Ag12 As12 Se12"
_cell_length_a       10.386242718083334
_cell_length_b       15.12300343456947
_cell_length_c       100.25216674804688
_cell_angle_alpha    107.17960161171713
_cell_angle_beta     85.23505919249072
_cell_angle_gamma    64.52220364932553

_space_group_name_H-M_alt    "P 1"
_space_group_IT_number       1

loop_
  _space_group_symop_operation_xyz
  'x, y, z'

loop_
  _atom_site_type_symbol
  _atom_site_label
  _atom_site_symmetry_multiplicity
  _atom_site_fract_x
  _atom_site_fract_y
  _atom_site_fract_z
  _atom_site_occupancy
  H   H1        1.0  0.000595931761441279  0.005703579780074544  0.00022548544918198383  1.0000
  Ag  Ag1       1.0  0.0012271670049399516  0.006603981408329484  0.9995649739992709  1.0000
  Ag  Ag2       1.0  0.004447365258850784  0.0068975013188645636  2.0769664821780734e-05  1.0000
  Ag  Ag3       1.0  0.007893834151499123  0.006603981408329484  0.9998164412084093  1.0000
  Ag  Ag4       1.0  0.0035678972607671587  0.0017944328197305594  0.9999127136684147  1.0000
  Ag  Ag5       1.0  0.006748307092281362  0.0016039814846309267  0.9996436037925676  1.0000
  Ag  Ag6       1.0  0.009096546820567538  0.0017173834763812429  6.996589396760735e-05  1.0000
  Ag  Ag7       1.0  0.0033348536257602882  0.008442451752320616  0.9997831707645233  1.0000
  Ag  Ag8       1.0  0.006668187199039873  0.008442451752320616  0.9995317035610809  1.0000
  Ag  Ag9       1.0  0.0003860170457898057  0.008403155335575339  0.9999885591086751  1.0000
  Ag  Ag10      1.0  0.005269067061188847  0.0029310163189674885  5.718624100925244e-05  1.0000
  Ag  Ag11      1.0  0.009030488600115445  0.0032590869899927063  0.9998462258708871  1.0000
  Ag  Ag12      1.0  0.0021893264687201613  0.003442451975355601  0.9996103330587877  1.0000
  As  As1       1.0  0.005466689350822275  8.318364917419394e-05  0.9999566602844904  1.0000
  As  As2       1.0  0.008708371037689766  0.00012961735053740068  0.9997168863053789  1.0000
  As  As3       1.0  0.0020417042510499726  0.00012961735053740068  0.9994654190931431  1.0000
  As  As4       1.0  0.0010599657326879636  0.005201405358000921  8.890404074872768e-05  1.0000
  As  As5       1.0  0.004566254738944896  0.005129617439311194  0.9998463242026754  1.0000
  As  As6       1.0  0.007899588312224481  0.005129617439311194  0.9995948569992331  1.0000
  As  As7       1.0  0.005516904965790899  0.004916816237840977  0.9995804503827496  1.0000
  As  As8       1.0  0.008946055483037618  0.004824991560356141  5.5639422328676595e-05  1.0000
  As  As9       1.0  0.0021835713925113134  0.004916816237840977  0.9998319175861919  1.0000
  As  As10      1.0  0.0013747886792738247  0.009916816308273077  0.9997098879818499  1.0000
  As  As11      1.0  0.00470812225255341  0.009916816308273077  0.9994584207784076  1.0000
  As  As12      1.0  0.007957983880784352  0.009891364494798617  0.9999553326343342  1.0000
  Se  Se1       1.0  0.002411723494833868  0.0036324381651231955  0.0001375368834688436  1.0000
  Se  Se2       1.0  0.006280511637378846  0.0034257152539477285  0.9998482596395302  1.0000
  Se  Se3       1.0  0.009613983652301433  0.0034228287116853124  0.9995960044677169  1.0000
  Se  Se4       1.0  0.009269694172579637  0.008422828782117413  0.9995440580383593  1.0000
  Se  Se5       1.0  0.0024549850525715047  0.008725551820483863  5.920970007727565e-05  1.0000
  Se  Se6       1.0  0.005936360599300052  0.008422828782117413  0.9997955255390752  1.0000
  Se  Se7       1.0  0.006938851247901866  0.001545176843313255  0.0001623732830526233  1.0000
  Se  Se8       1.0  0.0010420685475514278  0.0015661033943145104  0.9998864659279423  1.0000
  Se  Se9       1.0  0.004146799007613376  0.0016236050417683017  0.9996312490537295  1.0000
  Se  Se10      1.0  0.003802510345552703  0.006623604965466858  0.9995793026107972  1.0000
  Se  Se11      1.0  0.007126422606744655  0.0064303175644436815  5.98078255800334e-05  1.0000
  Se  Se12      1.0  0.0004691767722731176  0.006623604965466858  0.9998307698142395  1.0000
