data_image0
_chemical_formula_structural       HTi6Al6Pt6Ti6Al6Pt6Ti6Al6Pt6Ti6Al6Pt6
_chemical_formula_sum              "H1 Ti24 Al24 Pt24"
_cell_length_a       10.467442002039595
_cell_length_b       8.943728042468164
_cell_length_c       105.20462799072266
_cell_angle_alpha    71.48443755608297
_cell_angle_beta     81.87363225455859
_cell_angle_gamma    64.70895710229642

_space_group_name_H-M_alt    "P 1"
_space_group_IT_number       1

loop_
  _space_group_symop_operation_xyz
  'x, y, z'

loop_
  _atom_site_type_symbol
  _atom_site_label
  _atom_site_symmetry_multiplicity
  _atom_site_fract_x
  _atom_site_fract_y
  _atom_site_fract_z
  _atom_site_occupancy
  H   H1        1.0  0.0021653102431420843  0.00055002892945957  0.9999282971314996  1.0000
  Ti  Ti1       1.0  0.006870292995757001  0.004449971131162804  0.9996411575300312  1.0000
  Ti  Ti2       1.0  0.0004398404674349901  0.004316766178337143  0.999198781829165  1.0000
  Ti  Ti3       1.0  0.0037731736997364475  0.00431676611733559  0.9994218686264902  1.0000
  Ti  Ti4       1.0  0.008773173794207813  0.004316766123033597  0.9994218688686282  1.0000
  Ti  Ti5       1.0  0.002066917923442321  0.004288035173990225  0.999657910580911  1.0000
  Ti  Ti6       1.0  0.005439840660314026  0.004316766135062724  0.999198782071241  1.0000
  Al  Al1       1.0  0.006828729531708218  0.0026500992037831817  0.9994590498683459  1.0000
  Al  Al2       1.0  0.009837937712283454  0.0027345680216338984  0.9997031668876195  1.0000
  Al  Al3       1.0  0.0034953960041837462  0.002650099411702018  0.9992359630712065  1.0000
  Al  Al4       1.0  0.0075070166086704864  0.0010448439023875685  0.999798259699376  1.0000
  Al  Al5       1.0  0.0007176181629876914  0.0009834327521918707  0.9993846876259611  1.0000
  Al  Al6       1.0  0.003955396365568206  0.001005581839301169  0.9996147752080038  1.0000
  Pt  Pt1       1.0  0.005717618355866727  0.0009834324892860433  0.9993846878739664  1.0000
  Pt  Pt2       1.0  0.009111134866110648  0.0009844578076750553  0.9995997165750304  1.0000
  Pt  Pt3       1.0  0.0021774543402260983  0.0011925366676001459  0.999802196206461  1.0000
  Pt  Pt4       1.0  0.008495395705024425  0.002650099613289736  0.9992359633135923  1.0000
  Pt  Pt5       1.0  0.0018287292404215107  0.0026500995156614362  0.9994590496204026  1.0000
  Pt  Pt6       1.0  0.005154034473306272  0.0026798869906309794  0.9996753960063198  1.0000
  Ti  Ti7       1.0  0.007106506833630234  0.004316766105306463  0.9989756955283461  1.0000
  Ti  Ti8       1.0  0.0004398404674349901  0.004316766178337143  0.9985295219336339  1.0000
  Ti  Ti9       1.0  0.0037731736997364475  0.00431676611733559  0.998752608730959  1.0000
  Ti  Ti10      1.0  0.008773173794207813  0.004316766123033597  0.9987526084065378  1.0000
  Ti  Ti11      1.0  0.0021065071327895546  0.0043167663429815595  0.9989756952741017  1.0000
  Ti  Ti12      1.0  0.005439840660314026  0.004316766135062724  0.9985295218924303  1.0000
  Al  Al7       1.0  0.006828729531708218  0.0026500992037831817  0.9987897896895351  1.0000
  Al  Al8       1.0  0.00016206264887269967  0.002650099533919107  0.9990128762739588  1.0000
  Al  Al9       1.0  0.0034953960041837462  0.002650099411702018  0.9985667028923958  1.0000
  Al  Al10      1.0  0.00738428492281362  0.0009834327029028874  0.9991616007524059  1.0000
  Al  Al11      1.0  0.0007176181629876914  0.0009834327521918707  0.9987154274471504  1.0000
  Al  Al12      1.0  0.004050951395289149  0.0009834326911903166  0.9989385139611959  1.0000
  Pt  Pt7       1.0  0.005717618355866727  0.0009834324892860433  0.998715427411876  1.0000
  Pt  Pt8       1.0  0.009050951883391199  0.0009834322813672067  0.9989385142090154  1.0000
  Pt  Pt9       1.0  0.002384284828342256  0.0009834326972048798  0.9991616010768272  1.0000
  Pt  Pt10      1.0  0.008495395705024425  0.002650099613289736  0.9985667031347815  1.0000
  Pt  Pt11      1.0  0.0018287292404215107  0.0026500995156614362  0.9987897897248713  1.0000
  Pt  Pt12      1.0  0.0051620625711306396  0.002650099625318862  0.9990128765162052  1.0000
  Ti  Ti13      1.0  0.006870292995757001  0.009449970604047427  0.9996411573063069  1.0000
  Ti  Ti14      1.0  0.0004398404674349901  0.009316766529747394  0.9991987821482824  1.0000
  Ti  Ti15      1.0  0.0037731736997364475  0.009316766029483028  0.9994218689574662  1.0000
  Ti  Ti16      1.0  0.008773173794207813  0.009316766474443848  0.9994218686211863  1.0000
  Ti  Ti17      1.0  0.002066917923442321  0.009288035086137661  0.9996579103453279  1.0000
  Ti  Ti18      1.0  0.005439840660314026  0.00931676604721016  0.9991987818356579  1.0000
  Al  Al13      1.0  0.006828729531708218  0.007650099115930618  0.9994590496327628  1.0000
  Al  Al14      1.0  0.009837937712283454  0.007734568373044149  0.9997031666401777  1.0000
  Al  Al15      1.0  0.0034953960041837462  0.00765009976311227  0.9992359628237648  1.0000
  Al  Al16      1.0  0.0075070166086704864  0.00604484425379782  0.9997982600184933  1.0000
  Al  Al17      1.0  0.0007176181629876914  0.005983432883970715  0.9993846873844486  1.0000
  Al  Al18      1.0  0.003955396365568206  0.00600558219071142  0.9996147755271212  1.0000
  Pt  Pt13      1.0  0.005717618355866727  0.005983432840696294  0.9993846876265247  1.0000
  Pt  Pt14      1.0  0.009111134866110648  0.005984458159085307  0.9995997163275886  1.0000
  Pt  Pt15      1.0  0.0021774543402260983  0.006192536579747583  0.9998021965374371  1.0000
  Pt  Pt16      1.0  0.008495395705024425  0.007650099525437173  0.9992359630780092  1.0000
  Pt  Pt17      1.0  0.0018287292404215107  0.0076500996474402816  0.9994590499454492  1.0000
  Pt  Pt18      1.0  0.005154034473306272  0.007679886902778417  0.999675396337296  1.0000
  Ti  Ti19      1.0  0.007106506833630234  0.009316766456716714  0.9989756952809044  1.0000
  Ti  Ti20      1.0  0.0004398404674349901  0.009316766529747394  0.9985295219694716  1.0000
  Ti  Ti21      1.0  0.0037731736997364475  0.009316766029483028  0.9987526084953758  1.0000
  Ti  Ti22      1.0  0.008773173794207813  0.009316766474443848  0.9987526087256551  1.0000
  Ti  Ti23      1.0  0.0021065071327895546  0.009316765815866183  0.9989756950503773  1.0000
  Ti  Ti24      1.0  0.005439840660314026  0.00931676604721016  0.9985295219401267  1.0000
  Al  Al19      1.0  0.006828729531708218  0.007650099115930618  0.9987897897372315  1.0000
  Al  Al20      1.0  0.00016206264887269967  0.0076500994460665436  0.9990128766049349  1.0000
  Al  Al21      1.0  0.0034953960041837462  0.00765009976311227  0.9985667029282336  1.0000
  Al  Al22      1.0  0.00738428492281362  0.005983433054313139  0.9991616010715232  1.0000
  Al  Al23      1.0  0.0007176181629876914  0.005983432883970715  0.9987154274889175  1.0000
  Al  Al24      1.0  0.004050951395289149  0.005983432822969161  0.9989385142862426  1.0000
  Pt  Pt19      1.0  0.005717618355866727  0.005983432840696294  0.9987154274477138  1.0000
  Pt  Pt20      1.0  0.009050951883391199  0.005983432193514644  0.9989385139734323  1.0000
  Pt  Pt21      1.0  0.002384284828342256  0.005983432609352316  0.9991616008412441  1.0000
  Pt  Pt22      1.0  0.008495395705024425  0.007650099525437173  0.9985667028991984  1.0000
  Pt  Pt23      1.0  0.0018287292404215107  0.0076500996474402816  0.9987897894833588  1.0000
  Pt  Pt24      1.0  0.0051620625711306396  0.007650099098203484  0.9990128762924808  1.0000
