data_image0
_chemical_formula_structural       HOs16Si16
_chemical_formula_sum              "H1 Os16 Si16"
_cell_length_a       6.801784992218018
_cell_length_b       8.330450905279132
_cell_length_c       38.461421966552734
_cell_angle_alpha    84.94884750398045
_cell_angle_beta     90.0
_cell_angle_gamma    90.0

_space_group_name_H-M_alt    "P 1"
_space_group_IT_number       1

loop_
  _space_group_symop_operation_xyz
  'x, y, z'

loop_
  _atom_site_type_symbol
  _atom_site_label
  _atom_site_symmetry_multiplicity
  _atom_site_fract_x
  _atom_site_fract_y
  _atom_site_fract_z
  _atom_site_occupancy
  H   H1        1.0  0.009248122306708522  0.0025919678116080244  0.00033927978281143666  1.0000
  Os  Os1       1.0  0.00938588791855403  0.0068560802236142925  0.9990530725946285  1.0000
  Os  Os2       1.0  0.004385887798061563  0.003731080178720998  0.9985405689816024  1.0000
  Os  Os3       1.0  0.009248122306708522  0.0027757432286114265  1.7190006325615334e-05  1.0000
  Os  Os4       1.0  0.004239026100211036  0.00986539226741222  0.9995757661638828  1.0000
  Os  Os5       1.0  0.0031141122457538804  0.005107388963725414  0.9991834304434242  1.0000
  Os  Os6       1.0  0.008114112366246349  0.001982388694365643  0.9986709268346785  1.0000
  Os  Os7       1.0  0.0031141122457538804  0.008857388748237598  0.9981584234057359  1.0000
  Os  Os8       1.0  0.008079246775025646  0.008309252390305784  0.9996856158605406  1.0000
  Os  Os9       1.0  0.009350926481051363  0.003476167744278138  0.9993039068420136  1.0000
  Os  Os10      1.0  0.004342336616769173  0.00029357995537685486  0.9987968208935348  1.0000
  Os  Os11      1.0  0.009342336463415122  0.007168580205656975  0.9982843174608468  1.0000
  Os  Os12      1.0  0.0044688337181672914  0.006462336845554883  0.9997781893617187  1.0000
  Os  Os13      1.0  0.000614112253969276  0.0038846082892646386  0.9981628873811581  1.0000
  Os  Os14      1.0  0.0056505452577774685  0.003169927234361561  0.9996606472777153  1.0000
  Os  Os15      1.0  0.000614112253969276  0.0001346080558195042  0.9991878944274073  1.0000
  Os  Os16      1.0  0.005614112169076855  0.007009608109691459  0.9986753909984648  1.0000
  Si  Si1       1.0  0.00232470391977161  0.004058928056002238  0.9998041515365212  1.0000
  Si  Si2       1.0  0.007259615377874547  0.001058727892063417  0.9992710168860784  1.0000
  Si  Si3       1.0  0.0022596153943053384  0.00793372805816861  0.9987585134549957  1.0000
  Si  Si4       1.0  0.007259615377874547  0.004808728237741789  0.9982460098376889  1.0000
  Si  Si5       1.0  0.008015806394839396  0.005366869515404104  0.9997495827404669  1.0000
  Si  Si6       1.0  0.0031141122457538804  0.0022336609559809534  0.9991834303573452  1.0000
  Si  Si7       1.0  0.008114112366246349  0.009108661009852907  0.9986709269284026  1.0000
  Si  Si8       1.0  0.0031141122457538804  0.005983661189426088  0.9981584233110959  1.0000
  Si  Si9       1.0  0.0014423971326876035  0.0075663913651791  0.999569475027295  1.0000
  Si  Si10      1.0  0.006468609157448657  0.004496227806766157  0.9990147653674631  1.0000
  Si  Si11      1.0  0.0014686090369561882  0.0013712278741060992  0.9985022617522967  1.0000
  Si  Si12      1.0  0.006824548839392004  0.0006615842958383959  0.9999873836565684  1.0000
  Si  Si13      1.0  0.000614112253969276  0.004603040178967516  0.998752005755064  1.0000
  Si  Si14      1.0  0.005614112169076855  0.0014780400218409831  0.998239502144178  1.0000
  Si  Si15      1.0  0.0007678128578845399  0.0005103600530791026  0.9998046634553046  1.0000
  Si  Si16      1.0  0.005614112169076855  0.007728040448327286  0.9992645089763782  1.0000
