data_image0
_chemical_formula_structural       HIn12
_chemical_formula_sum              "H1 In12"
_cell_length_a       6.8887834548950195
_cell_length_b       6.888783322727926
_cell_length_c       103.74800872802734
_cell_angle_alpha    90.0
_cell_angle_beta     90.0
_cell_angle_gamma    120.00000063466248

_space_group_name_H-M_alt    "P 1"
_space_group_IT_number       1

loop_
  _space_group_symop_operation_xyz
  'x, y, z'

loop_
  _atom_site_type_symbol
  _atom_site_label
  _atom_site_symmetry_multiplicity
  _atom_site_fract_x
  _atom_site_fract_y
  _atom_site_fract_z
  _atom_site_occupancy
  H   H1        1.0  0.002499999312437679  0.002500000149864307  0.00011875426472955502  1.0000
  In  In1       1.0  0.0008333339814482392  0.004166666708295641  0.999474058914966  1.0000
  In  In2       1.0  0.009166666111992789  0.00083333343532432  0.0  1.0000
  In  In3       1.0  0.0024999995256860612  0.00250000030597296  0.9997374047585098  1.0000
  In  In4       1.0  0.0008333340339728263  0.009166667008024255  0.999474058914966  1.0000
  In  In5       1.0  0.00916666620074251  0.005833333266726975  0.0  1.0000
  In  In6       1.0  0.0024999996353503775  0.007500000449592921  0.9997374047585098  1.0000
  In  In7       1.0  0.005833333905739568  0.004166666708295641  0.999474058914966  1.0000
  In  In8       1.0  0.0041666661877014614  0.00083333343532432  0.0  1.0000
  In  In9       1.0  0.007499999720365501  0.00250000030597296  0.9997374047585098  1.0000
  In  In10      1.0  0.005833334093458211  0.009166667008024255  0.999474058914966  1.0000
  In  In11      1.0  0.004166666006063069  0.005833333266726975  0.0  1.0000
  In  In12      1.0  0.007499999694835762  0.007500000449592921  0.9997374047585098  1.0000
