data_image0
_chemical_formula_structural       COIn2Cu2Pt4In2Cu2Pt4In2Cu2Pt4In2Cu2Pt4
_chemical_formula_sum              "C1 O1 In8 Cu8 Pt16"
_cell_length_a       7.712964057922363
_cell_length_b       5.8046464920043945
_cell_length_c       104.827880859375
_cell_angle_alpha    90.0
_cell_angle_beta     90.0
_cell_angle_gamma    90.0

_space_group_name_H-M_alt    "P 1"
_space_group_IT_number       1

loop_
  _space_group_symop_operation_xyz
  'x, y, z'

loop_
  _atom_site_type_symbol
  _atom_site_label
  _atom_site_symmetry_multiplicity
  _atom_site_fract_x
  _atom_site_fract_y
  _atom_site_fract_z
  _atom_site_occupancy
  C   C1        1.0  0.0016666654801193897  0.0012500000577599561  6.927424490538574e-05  1.0000
  O   O1        1.0  0.0016666654801193897  0.0012500000577599561  0.00018374727074235809  1.0000
  In  In1       1.0  4.000000050992344e-10  0.0062499994865781675  0.9994439973389738  1.0000
  In  In2       1.0  4.000000050992344e-10  0.001249999977537795  0.9991671317776565  1.0000
  Cu  Cu1       1.0  4.000000050992344e-10  0.0062499994865781675  0.9991671317776565  1.0000
  Cu  Cu2       1.0  4.000000050992344e-10  0.001249999977537795  0.9994439973389738  1.0000
  Pt  Pt1       1.0  0.0025000004540113056  0.008749999922986725  0.9990286989969979  1.0000
  Pt  Pt2       1.0  0.0025000004540113056  0.003750000012835546  0.9993055645583151  1.0000
  Pt  Pt3       1.0  0.0025000004540113056  0.003750000012835546  0.9990286989969979  1.0000
  Pt  Pt4       1.0  0.0025000004540113056  0.008749999922986725  0.9993055645583151  1.0000
  In  In3       1.0  0.009999998918100718  0.006249995635914425  0.0  1.0000
  In  In4       1.0  0.00999999988408222  0.0012500032666464091  0.9997186180858807  1.0000
  Cu  Cu3       1.0  5.00000027965412e-10  0.006249998203023587  0.9997219836017104  1.0000
  Cu  Cu4       1.0  0.009999998918100718  0.0012500007797594081  0.9999793497543669  1.0000
  Pt  Pt5       1.0  0.0025000004540113056  0.008749999922986725  0.9995824298353347  1.0000
  Pt  Pt6       1.0  0.002499999005039054  0.003763837372997922  0.9998663937409025  1.0000
  Pt  Pt7       1.0  0.0025000004540113056  0.003750000012835546  0.9995824298353347  1.0000
  Pt  Pt8       1.0  0.002499998763543679  0.008736161921047059  0.9998663943094979  1.0000
  In  In5       1.0  0.0050000004250318605  0.0062499994865781675  0.9994439973389738  1.0000
  In  In6       1.0  0.0050000004250318605  0.001249999977537795  0.9991671317776565  1.0000
  Cu  Cu5       1.0  0.0050000004250318605  0.0062499994865781675  0.9991671317776565  1.0000
  Cu  Cu6       1.0  0.0050000004250318605  0.001249999977537795  0.9994439973389738  1.0000
  Pt  Pt9       1.0  0.00750000063754779  0.008749999922986725  0.9990286989969979  1.0000
  Pt  Pt10      1.0  0.00750000063754779  0.003750000012835546  0.9993055645583151  1.0000
  Pt  Pt11      1.0  0.00750000063754779  0.003750000012835546  0.9990286989969979  1.0000
  Pt  Pt12      1.0  0.00750000063754779  0.008749999922986725  0.9993055645583151  1.0000
  In  In7       1.0  0.004999998493068859  0.006249995635914425  0.0  1.0000
  In  In8       1.0  0.004999999459050359  0.0012500032666464091  0.9997186180858807  1.0000
  Cu  Cu7       1.0  0.0050000004250318605  0.006249998203023587  0.9997219836017104  1.0000
  Cu  Cu8       1.0  0.004999998493068859  0.0012500007797594081  0.9999793497543669  1.0000
  Pt  Pt13      1.0  0.00750000063754779  0.008749999922986725  0.9995824298353347  1.0000
  Pt  Pt14      1.0  0.007499998705584789  0.003763837372997922  0.9998663937409025  1.0000
  Pt  Pt15      1.0  0.00750000063754779  0.003750000012835546  0.9995824298353347  1.0000
  Pt  Pt16      1.0  0.007499998705584789  0.008736161921047059  0.9998663943094979  1.0000
