data_image0
_chemical_formula_structural       HSi6Pt12
_chemical_formula_sum              "H1 Si6 Pt12"
_cell_length_a       5.632452964782715
_cell_length_b       7.1919498891809885
_cell_length_c       102.88438415527344
_cell_angle_alpha    70.22935248282677
_cell_angle_beta     90.0
_cell_angle_gamma    66.94712883920411

_space_group_name_H-M_alt    "P 1"
_space_group_IT_number       1

loop_
  _space_group_symop_operation_xyz
  'x, y, z'

loop_
  _atom_site_type_symbol
  _atom_site_label
  _atom_site_symmetry_multiplicity
  _atom_site_fract_x
  _atom_site_fract_y
  _atom_site_fract_z
  _atom_site_occupancy
  H   H1        1.0  0.006847329867452845  0.008569337235153003  4.778589276651913e-05  1.0000
  Si  Si1       1.0  0.007083333829804433  0.008097329310449828  0.9994212353645588  1.0000
  Si  Si2       1.0  0.0004166666910797302  0.0014306626619427364  0.9999539431036973  1.0000
  Si  Si3       1.0  0.0037500000572602585  0.004763996061861181  0.9996875895220071  1.0000
  Si  Si4       1.0  0.007083333829804433  0.008097329310449828  0.9998207664415227  1.0000
  Si  Si5       1.0  0.0004166666910797302  0.0014306626619427364  0.9995544126060696  1.0000
  Si  Si6       1.0  0.0037500000572602585  0.004763996061861181  0.9992880587347113  1.0000
  Pt  Pt1       1.0  0.004583333962083933  0.008097329310449828  0.9996210009030408  1.0000
  Pt  Pt2       1.0  0.007916666624939981  0.0014306626619427364  0.9993546470675877  1.0000
  Pt  Pt3       1.0  0.0012500001895397576  0.004763996061861181  0.9998873544811528  1.0000
  Pt  Pt4       1.0  0.009583334358922432  0.008097329310449828  0.9996210009030408  1.0000
  Pt  Pt5       1.0  0.0029166668894989797  0.0014306626619427364  0.9993546470675877  1.0000
  Pt  Pt6       1.0  0.006249999924980759  0.004763996061861181  0.9998873544811528  1.0000
  Pt  Pt7       1.0  0.007916666624939981  0.0014306626619427364  0.9997541781445516  1.0000
  Pt  Pt8       1.0  0.0012500001895397576  0.004763996061861181  0.9994878239835252  1.0000
  Pt  Pt9       1.0  0.004583333962083933  0.008097329310449828  0.999221470115745  1.0000
  Pt  Pt10      1.0  0.0029166668894989797  0.0014306626619427364  0.9997541781445516  1.0000
  Pt  Pt11      1.0  0.006249999924980759  0.004763996061861181  0.9994878239835252  1.0000
  Pt  Pt12      1.0  0.009583334358922432  0.008097329310449828  0.999221470115745  1.0000
