data_image0
_chemical_formula_structural       COCu3Ni6Sn3Cu3Ni6Sn3Cu3Ni6Sn3Cu3Ni6Sn3
_chemical_formula_sum              "C1 O1 Cu12 Ni24 Sn12"
_cell_length_a       8.552408218383789
_cell_length_b       8.552407873709786
_cell_length_c       101.42355346679688
_cell_angle_alpha    90.0
_cell_angle_beta     90.0
_cell_angle_gamma    120.00000133315956

_space_group_name_H-M_alt    "P 1"
_space_group_IT_number       1

loop_
  _space_group_symop_operation_xyz
  'x, y, z'

loop_
  _atom_site_type_symbol
  _atom_site_label
  _atom_site_symmetry_multiplicity
  _atom_site_fract_x
  _atom_site_fract_y
  _atom_site_fract_z
  _atom_site_occupancy
  C   C1        1.0  0.004166666927262195  0.0016666517972308353  9.377558995976166e-05  1.0000
  O   O1        1.0  0.004166666927262195  0.0016666517972308353  0.00021209154230532337  1.0000
  Cu  Cu1       1.0  0.0024999997670127616  0.003333340562672301  0.9993326829136285  1.0000
  Cu  Cu2       1.0  0.0008333523611089405  0.009999983462384142  0.0  1.0000
  Cu  Cu3       1.0  0.004166666231814885  0.0016666739278603283  0.999676932634814  1.0000
  Ni  Ni1       1.0  0.0024999997670127616  0.003333340562672301  0.9995908703514378  1.0000
  Ni  Ni2       1.0  0.0008333330062287309  7.1500001836532315e-09  0.999246620336412  1.0000
  Ni  Ni3       1.0  0.004166666927262195  0.0016666517972308353  0.9999230021006804  1.0000
  Ni  Ni4       1.0  0.0008333343048571308  0.009999993521761185  0.9997583927921824  1.0000
  Ni  Ni5       1.0  0.004166666231814885  0.0016666739278603283  0.9994187451970048  1.0000
  Ni  Ni6       1.0  0.0024999997670127616  0.003333340562672301  0.999074495181979  1.0000
  Sn  Sn1       1.0  0.0008333330062287309  7.1500001836532315e-09  0.9995048077742213  1.0000
  Sn  Sn2       1.0  0.004166666231814885  0.0016666739278603283  0.9991605577591955  1.0000
  Sn  Sn3       1.0  0.002500042416253036  0.003333305857821505  0.9998615894882632  1.0000
  Cu  Cu4       1.0  0.0025000000167399858  0.008333340844334859  0.9993326829136285  1.0000
  Cu  Cu5       1.0  0.0008333517510013465  0.004999982677752733  0.0  1.0000
  Cu  Cu6       1.0  0.004166666418671003  0.0066666740837806725  0.999676932634814  1.0000
  Ni  Ni7       1.0  0.0025000000167399858  0.008333340844334859  0.9995908703514378  1.0000
  Ni  Ni8       1.0  0.0008333331472898547  0.005000007323226486  0.999246620336412  1.0000
  Ni  Ni9       1.0  0.004166667005222367  0.0066666519531511795  0.9999230021006804  1.0000
  Ni  Ni10      1.0  0.0008333340551299073  0.004999993240098628  0.9997583927921824  1.0000
  Ni  Ni11      1.0  0.004166666418671003  0.0066666740837806725  0.9994187451970048  1.0000
  Ni  Ni12      1.0  0.0025000000167399858  0.008333340844334859  0.999074495181979  1.0000
  Sn  Sn4       1.0  0.0008333331472898547  0.005000007323226486  0.9995048077742213  1.0000
  Sn  Sn5       1.0  0.004166666418671003  0.0066666740837806725  0.9991605577591955  1.0000
  Sn  Sn6       1.0  0.0025000426659802597  0.008333306139484062  0.9998615894882632  1.0000
  Cu  Cu7       1.0  0.007499999549220872  0.003333340562672301  0.9993326829136285  1.0000
  Cu  Cu8       1.0  0.005833352088869078  0.009999983462384142  0.0  1.0000
  Cu  Cu9       1.0  0.009166666231814887  0.0016666739278603283  0.999676932634814  1.0000
  Ni  Ni13      1.0  0.007499999549220872  0.003333340562672301  0.9995908703514378  1.0000
  Ni  Ni14      1.0  0.005833332842884813  7.1500001836532315e-09  0.999246620336412  1.0000
  Ni  Ni15      1.0  0.009166666491678415  0.0016666517972308353  0.9999230021006804  1.0000
  Ni  Ni16      1.0  0.005833334141513213  0.009999993521761185  0.9997583927921824  1.0000
  Ni  Ni17      1.0  0.009166666231814887  0.0016666739278603283  0.9994187451970048  1.0000
  Ni  Ni18      1.0  0.007499999549220872  0.003333340562672301  0.999074495181979  1.0000
  Sn  Sn7       1.0  0.005833332842884813  7.1500001836532315e-09  0.9995048077742213  1.0000
  Sn  Sn8       1.0  0.009166666231814887  0.0016666739278603283  0.9991605577591955  1.0000
  Sn  Sn9       1.0  0.007500042307357092  0.003333305857821505  0.9998615894882632  1.0000
  Cu  Cu10      1.0  0.0074999999078440415  0.008333340844334859  0.9993326829136285  1.0000
  Cu  Cu11      1.0  0.005833351533209456  0.004999982677752733  0.0  1.0000
  Cu  Cu12      1.0  0.009166666309775058  0.0066666740837806725  0.999676932634814  1.0000
  Ni  Ni19      1.0  0.0074999999078440415  0.008333340844334859  0.9995908703514378  1.0000
  Ni  Ni20      1.0  0.005833333147289854  0.005000007323226486  0.999246620336412  1.0000
  Ni  Ni21      1.0  0.009166667005222368  0.0066666519531511795  0.9999230021006804  1.0000
  Ni  Ni22      1.0  0.005833333946233962  0.004999993240098628  0.9997583927921824  1.0000
  Ni  Ni23      1.0  0.009166666309775058  0.0066666740837806725  0.9994187451970048  1.0000
  Ni  Ni24      1.0  0.0074999999078440415  0.008333340844334859  0.999074495181979  1.0000
  Sn  Sn10      1.0  0.005833333147289854  0.005000007323226486  0.9995048077742213  1.0000
  Sn  Sn11      1.0  0.009166666309775058  0.0066666740837806725  0.9991605577591955  1.0000
  Sn  Sn12      1.0  0.007500042448188369  0.008333306139484062  0.9998615894882632  1.0000
