data_image0
_chemical_formula_structural       HFe6Ga3V3Fe6Ga3V3Fe6Ga3V3Fe6Ga3V3
_chemical_formula_sum              "H1 Fe24 Ga12 V12"
_cell_length_a       8.130536079406738
_cell_length_b       8.13053600541944
_cell_length_c       109.83132934570312
_cell_angle_alpha    90.0
_cell_angle_beta     90.0
_cell_angle_gamma    120.0000003010232

_space_group_name_H-M_alt    "P 1"
_space_group_IT_number       1

loop_
  _space_group_symop_operation_xyz
  'x, y, z'

loop_
  _atom_site_type_symbol
  _atom_site_label
  _atom_site_symmetry_multiplicity
  _atom_site_fract_x
  _atom_site_fract_y
  _atom_site_fract_z
  _atom_site_occupancy
  H   H1        1.0  0.0008333290345115828  0.0016666711690231037  2.9429131889191106e-05  1.0000
  Fe  Fe1       1.0  0.0033333289866464447  0.0016666711690231037  0.999917252409937  1.0000
  Fe  Fe2       1.0  0.0016666669832905267  0.003333334666581068  0.9996243932566985  1.0000
  Fe  Fe3       1.0  2.999999969933122e-10  1.4000000102078975e-09  0.9993221775411141  1.0000
  Fe  Fe4       1.0  0.010000000016903923  1.5000000920265817e-09  0.9997702245147756  1.0000
  Fe  Fe5       1.0  0.0033333336510786185  0.001666668126890376  0.9994732853989063  1.0000
  Fe  Fe6       1.0  0.0016666669832905267  0.003333334666581068  0.9991710696833218  1.0000
  Ga  Ga1       1.0  0.0033333336510786185  0.001666668126890376  0.9996999474569409  1.0000
  Ga  Ga2       1.0  0.0016666669832905267  0.003333334666581068  0.9993977317413565  1.0000
  Ga  Ga3       1.0  1.360175367240497e-09  0.009999999238144151  0.0  1.0000
  V   V1        1.0  2.999999969933122e-10  1.4000000102078975e-09  0.9995488395991486  1.0000
  V   V2        1.0  0.0033333336510786185  0.001666668126890376  0.9992466233408717  1.0000
  V   V3        1.0  0.0016666660719573201  0.0033333333439146645  0.9998652119927309  1.0000
  Fe  Fe7       1.0  0.0033333291747142217  0.0066666714494283815  0.999917252409937  1.0000
  Fe  Fe8       1.0  0.001666667132448806  0.008333334814719704  0.9996243932566985  1.0000
  Fe  Fe9       1.0  3.6366557590714575e-10  0.005000001735338321  0.9993221775411141  1.0000
  Fe  Fe10      1.0  0.009999999859661992  0.005000001735338321  0.9997702245147756  1.0000
  Fe  Fe11      1.0  0.0033333336875144975  0.006666668275029013  0.9994732853989063  1.0000
  Fe  Fe12      1.0  0.001666667132448806  0.008333334814719704  0.9991710696833218  1.0000
  Ga  Ga4       1.0  0.0033333336875144975  0.006666668275029013  0.9996999474569409  1.0000
  Ga  Ga5       1.0  0.001666667132448806  0.008333334814719704  0.9993977317413565  1.0000
  Ga  Ga6       1.0  1.067391276547242e-09  0.0049999985609389536  0.0  1.0000
  V   V4        1.0  3.6366557590714575e-10  0.005000001735338321  0.9995488395991486  1.0000
  V   V5        1.0  0.0033333336875144975  0.006666668275029013  0.9992466233408717  1.0000
  V   V6        1.0  0.0016666661451971683  0.008333333756586583  0.9998652119927309  1.0000
  Fe  Fe13      1.0  0.00833332907828346  0.0016666711690231037  0.999917252409937  1.0000
  Fe  Fe14      1.0  0.006666666966742472  0.003333334666581068  0.9996243932566985  1.0000
  Fe  Fe15      1.0  0.005000000333451943  1.4000000102078975e-09  0.9993221775411141  1.0000
  Fe  Fe16      1.0  0.004999999925266907  1.5000000920265817e-09  0.9997702245147756  1.0000
  Fe  Fe17      1.0  0.008333333513623096  0.001666668126890376  0.9994732853989063  1.0000
  Fe  Fe18      1.0  0.006666666966742472  0.003333334666581068  0.9991710696833218  1.0000
  Ga  Ga7       1.0  0.008333333513623096  0.001666668126890376  0.9996999474569409  1.0000
  Ga  Ga8       1.0  0.006666666966742472  0.003333334666581068  0.9993977317413565  1.0000
  Ga  Ga9       1.0  0.005000001519072005  0.009999999238144151  0.0  1.0000
  V   V7        1.0  0.005000000333451943  1.4000000102078975e-09  0.9995488395991486  1.0000
  V   V8        1.0  0.008333333513623096  0.001666668126890376  0.9992466233408717  1.0000
  V   V9        1.0  0.006666666305409271  0.0033333333439146645  0.9998652119927309  1.0000
  Fe  Fe19      1.0  0.008333329401760129  0.0066666714494283815  0.999917252409937  1.0000
  Fe  Fe20      1.0  0.006666666994993283  0.008333334814719704  0.9996243932566985  1.0000
  Fe  Fe21      1.0  0.005000000455302591  0.005000001735338321  0.9993221775411141  1.0000
  Fe  Fe22      1.0  0.004999999768024976  0.005000001735338321  0.9997702245147756  1.0000
  Fe  Fe23      1.0  0.008333333770966445  0.006666668275029013  0.9994732853989063  1.0000
  Fe  Fe24      1.0  0.006666666994993283  0.008333334814719704  0.9991710696833218  1.0000
  Ga  Ga10      1.0  0.008333333770966445  0.006666668275029013  0.9996999474569409  1.0000
  Ga  Ga11      1.0  0.006666666994993283  0.008333334814719704  0.9993977317413565  1.0000
  Ga  Ga12      1.0  0.005000001159028291  0.0049999985609389536  0.0  1.0000
  V   V10       1.0  0.005000000455302591  0.005000001735338321  0.9995488395991486  1.0000
  V   V11       1.0  0.008333333770966445  0.006666668275029013  0.9992466233408717  1.0000
  V   V12       1.0  0.006666666236834183  0.008333333756586583  0.9998652119927309  1.0000
