data_image0
_chemical_formula_structural       HV12Pt4V12Pt4
_chemical_formula_sum              "H1 V24 Pt8"
_cell_length_a       4.820059299468994
_cell_length_b       6.816593170166016
_cell_length_c       104.08296966552734
_cell_angle_alpha    90.0
_cell_angle_beta     90.0
_cell_angle_gamma    90.0

_space_group_name_H-M_alt    "P 1"
_space_group_IT_number       1

loop_
  _space_group_symop_operation_xyz
  'x, y, z'

loop_
  _atom_site_type_symbol
  _atom_site_label
  _atom_site_symmetry_multiplicity
  _atom_site_fract_x
  _atom_site_fract_y
  _atom_site_fract_z
  _atom_site_occupancy
  H   H1        1.0  0.008749994095255658  0.009393785283998413  4.169170967668871e-05  1.0000
  V   V1        1.0  1.5500000570888084e-09  0.006856215502966262  0.99878360687496  1.0000
  V   V2        1.0  1.5500000570888084e-09  0.001856215628662009  0.9991110665840112  1.0000
  V   V3        1.0  1.5500000570888084e-09  0.004356215634127042  0.9992747962953705  1.0000
  V   V4        1.0  1.5500000570888084e-09  0.009356215371805483  0.9989473365863194  1.0000
  V   V5        1.0  0.005000001483914809  0.006856215502966262  0.9989473365863194  1.0000
  V   V6        1.0  0.005000001483914809  0.001856215628662009  0.9992747962953705  1.0000
  V   V7        1.0  0.005000001483914809  0.009356215371805483  0.99878360687496  1.0000
  V   V8        1.0  0.005000001483914809  0.004356215634127042  0.9991110665840112  1.0000
  V   V9        1.0  0.007500001452999917  0.003106215699707431  0.9988654718738059  1.0000
  V   V10       1.0  0.007500001452999917  0.00810621598388912  0.9991929312965246  1.0000
  V   V11       1.0  0.0025000015148297005  0.003106215699707431  0.9988654718738059  1.0000
  V   V12       1.0  0.0025000015148297005  0.00810621598388912  0.9991929312965246  1.0000
  Pt  Pt1       1.0  0.005000001483914809  0.005606215568546652  0.999356661007884  1.0000
  Pt  Pt2       1.0  0.005000001483914809  0.0006062155576165869  0.9990292015851653  1.0000
  Pt  Pt3       1.0  1.5500000570888084e-09  0.005606215568546652  0.9990292015851653  1.0000
  Pt  Pt4       1.0  1.5500000570888084e-09  0.0006062155576165869  0.999356661007884  1.0000
  V   V13       1.0  1.5500000570888084e-09  0.006856215502966262  0.9994385262930623  1.0000
  V   V14       1.0  0.00999999833059584  0.0019780948699644053  0.9997676275455359  1.0000
  V   V15       1.0  4.750000091732168e-09  0.004464902287055753  0.9999276128886176  1.0000
  V   V16       1.0  1.5500000570888084e-09  0.009356215371805483  0.9996022557180894  1.0000
  V   V17       1.0  0.005000001483914809  0.006856215502966262  0.9996022557180894  1.0000
  V   V18       1.0  0.0049999980059894766  0.0017472732122138738  0.9999276260599061  1.0000
  V   V19       1.0  0.005000001483914809  0.009356215371805483  0.9994385262930623  1.0000
  V   V20       1.0  0.005000006894020882  0.00423456838345284  0.9997676464434717  1.0000
  V   V21       1.0  0.007500001452999917  0.003106215699707431  0.9995203910055758  1.0000
  V   V22       1.0  0.007499993724276955  0.008106098485691094  0.9998466197718093  1.0000
  V   V23       1.0  0.0025000015148297005  0.003106215699707431  0.9995203910055758  1.0000
  V   V24       1.0  0.0025000366805191764  0.008106128543369659  0.9998466197718093  1.0000
  Pt  Pt5       1.0  0.005000015009179992  0.005531177940267912  0.0  1.0000
  Pt  Pt6       1.0  0.005000001483914809  0.0006062155576165869  0.9996841210032675  1.0000
  Pt  Pt7       1.0  1.5500000570888084e-09  0.005606215568546652  0.9996841210032675  1.0000
  Pt  Pt8       1.0  0.009999993693362064  0.0006814703526229568  2.0043265231983638e-08  1.0000
