data_image0
_chemical_formula_structural       COIn24Co8
_chemical_formula_sum              "C1 O1 In24 Co8"
_cell_length_a       7.20556116104126
_cell_length_b       9.840117454528809
_cell_length_c       30.639530181884766
_cell_angle_alpha    90.0
_cell_angle_beta     90.0
_cell_angle_gamma    90.0

_space_group_name_H-M_alt    "P 1"
_space_group_IT_number       1

loop_
  _space_group_symop_operation_xyz
  'x, y, z'

loop_
  _atom_site_type_symbol
  _atom_site_label
  _atom_site_symmetry_multiplicity
  _atom_site_fract_x
  _atom_site_fract_y
  _atom_site_fract_z
  _atom_site_occupancy
  C   C1        1.0  0.009999998469673765  0.0024625714859531946  0.00045658898755087323  1.0000
  O   O1        1.0  0.009999998469673765  0.0024625714859531946  0.0008482397225698953  1.0000
  In  In1       1.0  0.009999998469673765  0.0024625714859531946  0.9998912894016088  1.0000
  In  In2       1.0  9.999999827474845e-10  0.007500069235056688  0.9981670539296622  1.0000
  In  In3       1.0  0.005000005955864266  0.002796652970805412  0.9998761253895215  1.0000
  In  In4       1.0  0.005000000785843202  0.007500069235056688  0.9981670539296622  1.0000
  In  In5       1.0  0.004999995615822137  0.007201953408671413  0.9998762070942692  1.0000
  In  In6       1.0  0.005000000785843202  0.0025000694546341864  0.9981670539296622  1.0000
  In  In7       1.0  1.5000000049369537e-09  0.007536419911309347  0.9998912801611909  1.0000
  In  In8       1.0  9.999999827474845e-10  0.0025000694546341864  0.9981670539296622  1.0000
  In  In9       1.0  0.007482544085638181  0.004999694832707266  0.9994495259350478  1.0000
  In  In10      1.0  0.007441146175967863  6.940000068769934e-08  0.997859285276515  1.0000
  In  In11      1.0  0.0024411459071267674  0.003458380048319891  0.997364159855681  1.0000
  In  In12      1.0  0.0024411459071267674  0.008458379639451447  0.9989699477604744  1.0000
  In  In13      1.0  0.0024411459071267674  0.006541758830661931  0.997364159855681  1.0000
  In  In14      1.0  0.0024411459071267674  0.0015417588609484818  0.9989699477604744  1.0000
  In  In15      1.0  0.007558856181561743  0.006541758830661931  0.997364159855681  1.0000
  In  In16      1.0  0.007558856181561743  0.0015417588609484818  0.9989699477604744  1.0000
  In  In17      1.0  0.007558856181561743  0.003458380048319891  0.997364159855681  1.0000
  In  In18      1.0  0.007558856181561743  0.008458379639451447  0.9989699477604744  1.0000
  In  In19      1.0  0.007441146175967863  0.005000069250199964  0.9984748223396405  1.0000
  In  In20      1.0  0.007081041283768013  0.009999136772709657  0.9999386246580695  1.0000
  In  In21      1.0  0.0025174561935429563  0.004999689532560757  0.99944952544871  1.0000
  In  In22      1.0  0.0025588559127206474  6.940000068769934e-08  0.997859285276515  1.0000
  In  In23      1.0  0.0025588559127206474  0.005000069250199964  0.9984748223396405  1.0000
  In  In24      1.0  0.0029189525328867936  0.009999141315692378  0.9999386285487718  1.0000
  Co  Co1       1.0  0.009999999503677979  0.004999617223419094  0.0  1.0000
  Co  Co2       1.0  9.999999827474845e-10  6.940000068769934e-08  0.9984848939087975  1.0000
  Co  Co3       1.0  0.005000000785843202  0.0015103995976710272  0.997364159855681  1.0000
  Co  Co4       1.0  0.005000000785843202  0.00651039937809353  0.9989699477604744  1.0000
  Co  Co5       1.0  0.005000000785843202  0.008489739092019848  0.997364159855681  1.0000
  Co  Co6       1.0  0.005000000785843202  0.0034897391223063993  0.9989699477604744  1.0000
  Co  Co7       1.0  9.999999827474845e-10  0.005000069250199964  0.997849213950527  1.0000
  Co  Co8       1.0  1.999999965494969e-09  0.009999930280358489  0.9994529940097814  1.0000
