data_image0
_chemical_formula_structural       HCr6Si2Cr6Si2
_chemical_formula_sum              "H1 Cr12 Si4"
_cell_length_a       4.528215408325195
_cell_length_b       4.528215408325195
_cell_length_c       101.697509765625
_cell_angle_alpha    90.0
_cell_angle_beta     90.0
_cell_angle_gamma    90.0

_space_group_name_H-M_alt    "P 1"
_space_group_IT_number       1

loop_
  _space_group_symop_operation_xyz
  'x, y, z'

loop_
  _atom_site_type_symbol
  _atom_site_label
  _atom_site_symmetry_multiplicity
  _atom_site_fract_x
  _atom_site_fract_y
  _atom_site_fract_z
  _atom_site_occupancy
  H   H1        1.0  0.003749382674391103  0.0012500044548337803  0.00010668437693552801  1.0000
  Cr  Cr1       1.0  0.006249593758648054  0.006250000164536797  0.9997688209187217  1.0000
  Cr  Cr2       1.0  0.0012495936270186163  0.006250000164536797  0.9997688209187217  1.0000
  Cr  Cr3       1.0  0.0037493859651270443  0.00873861757473077  0.9999855351164798  1.0000
  Cr  Cr4       1.0  0.0037493797949971546  0.0037613913925246692  0.9999855362886746  1.0000
  Cr  Cr5       1.0  0.008749528009743948  0.0012500120646606445  0.9998857186287294  1.0000
  Cr  Cr6       1.0  0.008750406636240259  0.00125000054708485  8.656658411414633e-05  1.0000
  Si  Si1       1.0  0.00874849965476231  0.006250008802718643  0.0  1.0000
  Si  Si2       1.0  0.0037495936928333353  0.0012500000329073594  0.9997688209187217  1.0000
  Cr  Cr7       1.0  0.006249593758648054  0.006250000164536797  0.9993235577517109  1.0000
  Cr  Cr8       1.0  0.0012495936270186163  0.006250000164536797  0.9993235577517109  1.0000
  Cr  Cr9       1.0  0.0037495936928333353  0.008750000230351515  0.9995461894817406  1.0000
  Cr  Cr10      1.0  0.0037495936928333353  0.003750000098722078  0.9995461894817406  1.0000
  Cr  Cr11      1.0  0.008749593824462772  0.0012500000329073594  0.9994348737632501  1.0000
  Cr  Cr12      1.0  0.008749593824462772  0.0012500000329073594  0.9996575052002311  1.0000
  Si  Si3       1.0  0.008749593824462772  0.006250000164536797  0.9995461894817406  1.0000
  Si  Si4       1.0  0.0037495936928333353  0.0012500000329073594  0.9993235577517109  1.0000
