data_image0
_chemical_formula_structural       HNi8Mo4Ni8Mo4
_chemical_formula_sum              "H1 Ni16 Mo8"
_cell_length_a       4.525578341435845
_cell_length_b       8.191514093978183
_cell_length_c       101.67904663085938
_cell_angle_alpha    100.98440629660409
_cell_angle_beta     71.9274945309778
_cell_angle_gamma    79.01559332524619

_space_group_name_H-M_alt    "P 1"
_space_group_IT_number       1

loop_
  _space_group_symop_operation_xyz
  'x, y, z'

loop_
  _atom_site_type_symbol
  _atom_site_label
  _atom_site_symmetry_multiplicity
  _atom_site_fract_x
  _atom_site_fract_y
  _atom_site_fract_z
  _atom_site_occupancy
  H   H1        1.0  0.00984205018845558  0.008960575272317393  0.00016821474870714145  1.0000
  Ni  Ni1       1.0  0.008502435584738635  0.003326844654898273  0.999267225406589  1.0000
  Ni  Ni2       1.0  0.003502435602056273  0.003326844654898273  0.9994897676361911  1.0000
  Ni  Ni3       1.0  0.00931346325599869  0.0017047893123781617  0.999453670122  1.0000
  Ni  Ni4       1.0  0.004313463273316329  0.0017047893123781617  0.9992311277277826  1.0000
  Ni  Ni5       1.0  0.006002435541468108  0.008326844741439328  0.9996010388822416  1.0000
  Ni  Ni6       1.0  0.0010024355587857454  0.008326844741439328  0.9993784964880241  1.0000
  Ni  Ni7       1.0  0.006813463212728163  0.006704789398919217  0.999342398973833  1.0000
  Ni  Ni8       1.0  0.0018134632300458007  0.006704789398919217  0.9995649412034352  1.0000
  Mo  Mo1       1.0  0.00015794950335185933  1.581704929523311e-05  0.9996386257800777  1.0000
  Mo  Mo2       1.0  0.005157949404857793  1.581704929523311e-05  0.9994160832584944  1.0000
  Mo  Mo3       1.0  0.007657949338635444  0.0050158171471046545  0.9995273545047957  1.0000
  Mo  Mo4       1.0  0.0026579493559530823  0.0050158171471046545  0.9993048121105782  1.0000
  Ni  Ni9       1.0  0.008502435584738635  0.003326844654898273  0.9997123097373066  1.0000
  Ni  Ni10      1.0  0.0035996530615846054  0.0033668230164805553  0.9999347277085187  1.0000
  Ni  Ni11      1.0  0.009356647654552814  0.001774495728348905  0.9998990494246852  1.0000
  Ni  Ni12      1.0  0.004313463273316329  0.0017047893123781617  0.9996762126447041  1.0000
  Ni  Ni13      1.0  0.006328279233952824  0.00826402458953693  3.947979941233281e-05  1.0000
  Ni  Ni14      1.0  0.001030854684052414  0.008327784192670882  0.9998191439695769  1.0000
  Ni  Ni15      1.0  0.006813463212728163  0.006704789398919217  0.9997874833045508  1.0000
  Ni  Ni16      1.0  0.002050241283095385  0.00674100394577979  1.568525299498843e-06  1.0000
  Mo  Mo5       1.0  0.0006386195226654813  0.009984182872126691  6.128464317732965e-05  1.0000
  Mo  Mo6       1.0  0.00496411828170069  7.833544560977766e-05  0.9998787517218218  1.0000
  Mo  Mo7       1.0  0.007881327706233857  0.005014161809033908  0.9999609687056754  1.0000
  Mo  Mo8       1.0  0.0026579493559530823  0.0050158171471046545  0.9997498970274997  1.0000
