data_image0
_chemical_formula_structural       HCa8
_chemical_formula_sum              "H1 Ca8"
_cell_length_a       6.859800338745117
_cell_length_b       7.660371870770666
_cell_length_c       101.6840591430664
_cell_angle_alpha    104.98144527813085
_cell_angle_beta     90.0
_cell_angle_gamma    63.4008444493783

_space_group_name_H-M_alt    "P 1"
_space_group_IT_number       1

loop_
  _space_group_symop_operation_xyz
  'x, y, z'

loop_
  _atom_site_type_symbol
  _atom_site_label
  _atom_site_symmetry_multiplicity
  _atom_site_fract_x
  _atom_site_fract_y
  _atom_site_fract_z
  _atom_site_occupancy
  H   H1        1.0  0.008227255322893706  0.0020151907884637284  9.077093116611364e-05  1.0000
  Ca  Ca1       1.0  0.0004166666404384515  0.002950154241387731  0.9996814080160419  1.0000
  Ca  Ca2       1.0  0.005416666689313946  0.002950154241387731  0.9994866622446046  1.0000
  Ca  Ca3       1.0  0.004583333383049102  0.007950154491364932  0.9997787808949054  1.0000
  Ca  Ca4       1.0  0.009583333296159334  0.007950154491364932  0.9995840351234679  1.0000
  Ca  Ca5       1.0  0.0007457454035910552  0.002887698289643257  6.146713510966041e-05  1.0000
  Ca  Ca6       1.0  0.0055599691939991844  0.002882066132841412  0.9998592935790809  1.0000
  Ca  Ca7       1.0  0.0046155637473341655  0.007564903262640628  0.00014732327443574354  1.0000
  Ca  Ca8       1.0  0.009521552008624654  0.007984809285393172  0.9999652641447845  1.0000
