data_image0
_chemical_formula_structural       HGa3Ir3Ga3Ir3Ga3Ir3Ga3Ir3Ga3Ir3Ga3Ir3Ga3Ir3Ga3Ir3
_chemical_formula_sum              "H1 Ga24 Ir24"
_cell_length_a       8.692179679870605
_cell_length_b       8.692179294558672
_cell_length_c       101.93710327148438
_cell_angle_alpha    90.0
_cell_angle_beta     90.0
_cell_angle_gamma    59.99999853362249

_space_group_name_H-M_alt    "P 1"
_space_group_IT_number       1

loop_
  _space_group_symop_operation_xyz
  'x, y, z'

loop_
  _atom_site_type_symbol
  _atom_site_label
  _atom_site_symmetry_multiplicity
  _atom_site_fract_x
  _atom_site_fract_y
  _atom_site_fract_z
  _atom_site_occupancy
  H   H1        1.0  0.0033333306638568512  0.004166667788397037  2.487281174454199e-05  1.0000
  Ga  Ga1       1.0  0.0033333331867980605  0.004166665313991809  0.9991321471473157  1.0000
  Ga  Ga2       1.0  1.7536886758158987e-10  0.0008333320482922186  0.9994802606774517  1.0000
  Ga  Ga3       1.0  0.0016666667037258402  0.002499998743002145  0.9993062039123837  1.0000
  Ir  Ir1       1.0  0.0033333331867980605  0.004166665313991809  0.9993932324410977  1.0000
  Ir  Ir2       1.0  1.7536886758158987e-10  0.0008333320482922186  0.9992191756760297  1.0000
  Ir  Ir3       1.0  0.0016666667037258402  0.002499998743002145  0.9990451189109617  1.0000
  Ga  Ga4       1.0  0.0033333331867980605  0.004166665313991809  0.9996543171501598  1.0000
  Ga  Ga5       1.0  0.00999999565849827  0.0008333368733824121  0.0  1.0000
  Ga  Ga6       1.0  0.0016666635047645764  0.0025000017122884174  0.999849175030499  1.0000
  Ir  Ir4       1.0  0.0033333306638568512  0.004166667788397037  0.9999040088858702  1.0000
  Ir  Ir5       1.0  0.00999999953792097  0.0008333325431732642  0.9997301903941292  1.0000
  Ir  Ir6       1.0  0.0016666667037258402  0.002499998743002145  0.9995672892061657  1.0000
  Ga  Ga7       1.0  0.00333333337058913  0.009166665769282371  0.9991321471473157  1.0000
  Ga  Ga8       1.0  9.015913955396719e-12  0.005833332132421997  0.9994802606774517  1.0000
  Ga  Ga9       1.0  0.0016666663683678736  0.007499998950852184  0.9993062039123837  1.0000
  Ir  Ir7       1.0  0.00333333337058913  0.009166665769282371  0.9993932324410977  1.0000
  Ir  Ir8       1.0  9.015913955396719e-12  0.005833332132421997  0.9992191756760297  1.0000
  Ir  Ir9       1.0  0.0016666663683678736  0.007499998950852184  0.9990451189109617  1.0000
  Ga  Ga10      1.0  0.00333333337058913  0.009166665769282371  0.9996543171501598  1.0000
  Ga  Ga11      1.0  0.0099999959660096  0.005833337081232451  0.0  1.0000
  Ga  Ga12      1.0  0.0016666631694066097  0.007500001920138457  0.999849175030499  1.0000
  Ir  Ir10      1.0  0.003333330666508912  0.009166667748806553  0.9999040088858702  1.0000
  Ir  Ir11      1.0  0.009999999050133369  0.005833332627303042  0.9997301903941292  1.0000
  Ir  Ir12      1.0  0.0016666663683678736  0.007499998950852184  0.9995672892061657  1.0000
  Ga  Ga13      1.0  0.008333333152511698  0.004166665313991809  0.9991321471473157  1.0000
  Ga  Ga14      1.0  0.004999999819647855  0.0008333320482922186  0.9994802606774517  1.0000
  Ga  Ga15      1.0  0.006666666883729243  0.002499998743002145  0.9993062039123837  1.0000
  Ir  Ir13      1.0  0.008333333152511698  0.004166665313991809  0.9993932324410977  1.0000
  Ir  Ir14      1.0  0.004999999819647855  0.0008333320482922186  0.9992191756760297  1.0000
  Ir  Ir15      1.0  0.006666666883729243  0.002499998743002145  0.9990451189109617  1.0000
  Ga  Ga16      1.0  0.008333333152511698  0.004166665313991809  0.9996543171501598  1.0000
  Ga  Ga17      1.0  0.004999996121364163  0.0008333368733824121  0.0  1.0000
  Ga  Ga18      1.0  0.00666666368476798  0.0025000017122884174  0.999849175030499  1.0000
  Ir  Ir16      1.0  0.008333330200990956  0.004166667788397037  0.9999040088858702  1.0000
  Ir  Ir17      1.0  0.0049999995722073325  0.0008333325431732642  0.9997301903941292  1.0000
  Ir  Ir18      1.0  0.006666666883729243  0.002499998743002145  0.9995672892061657  1.0000
  Ga  Ga19      1.0  0.008333332479143704  0.009166665769282371  0.9991321471473157  1.0000
  Ga  Ga20      1.0  0.005000000189019318  0.005833332132421997  0.9994802606774517  1.0000
  Ga  Ga21      1.0  0.006666666334081511  0.007499998950852184  0.9993062039123837  1.0000
  Ir  Ir19      1.0  0.008333332479143704  0.009166665769282371  0.9993932324410977  1.0000
  Ir  Ir20      1.0  0.005000000189019318  0.005833332132421997  0.9992191756760297  1.0000
  Ir  Ir21      1.0  0.006666666334081511  0.007499998950852184  0.9990451189109617  1.0000
  Ga  Ga22      1.0  0.008333332479143704  0.009166665769282371  0.9996543171501598  1.0000
  Ga  Ga23      1.0  0.0049999960002959625  0.005833337081232451  0.0  1.0000
  Ga  Ga24      1.0  0.006666663135120247  0.007500001920138457  0.999849175030499  1.0000
  Ir  Ir22      1.0  0.00833333063222255  0.009166667748806553  0.9999040088858702  1.0000
  Ir  Ir23      1.0  0.004999999084419731  0.005833332627303042  0.9997301903941292  1.0000
  Ir  Ir24      1.0  0.006666666334081511  0.007499998950852184  0.9995672892061657  1.0000
