data_image0
_chemical_formula_structural       Sn12Pd12CO
_chemical_formula_sum              "Sn12 Pd12 C1 O1"
_cell_length_a       6.187846660614014
_cell_length_b       10.387484904766557
_cell_length_c       100.70631408691406
_cell_angle_alpha    82.82479817740524
_cell_angle_beta     90.0
_cell_angle_gamma    90.0

_space_group_name_H-M_alt    "P 1"
_space_group_IT_number       1

loop_
  _space_group_symop_operation_xyz
  'x, y, z'

loop_
  _atom_site_type_symbol
  _atom_site_label
  _atom_site_symmetry_multiplicity
  _atom_site_fract_x
  _atom_site_fract_y
  _atom_site_fract_z
  _atom_site_occupancy
  Sn  Sn1       1.0  0.0031517534607768986  0.006090373499667338  0.999856475191662  1.0000
  Sn  Sn2       1.0  0.0030931415970972937  0.009508180404505694  0.9995976760467792  1.0000
  Sn  Sn3       1.0  0.0030931415970972937  0.002841513424570894  0.9993435846128443  1.0000
  Sn  Sn4       1.0  0.006906858764122741  0.00721025165243639  0.9996284825986085  1.0000
  Sn  Sn5       1.0  0.006906858764122741  0.000543584762867397  0.9993743914594423  1.0000
  Sn  Sn6       1.0  0.006843890887853798  0.003857415594576363  0.9998834853700282  1.0000
  Sn  Sn7       1.0  0.008093141476690616  0.00721025165243639  0.9992473457435037  1.0000
  Sn  Sn8       1.0  0.008053191143000364  0.00039955214777981764  0.9997529141677176  1.0000
  Sn  Sn9       1.0  0.008093141476690616  0.003876917981737374  0.999501437031936  1.0000
  Sn  Sn10      1.0  0.0019068585835127234  0.006174846733806679  0.9994706301841737  1.0000
  Sn  Sn11      1.0  0.0019255071697842044  0.009600447508830113  0.9999656341690154  1.0000
  Sn  Sn12      1.0  0.001991884662154274  0.0028774537136211837  0.9997265936433078  1.0000
  Pd  Pd1       1.0  0.004897402553430704  0.0048248665101829685  0.9996459565966356  1.0000
  Pd  Pd2       1.0  0.004897402553430704  0.008158199819418753  0.9993918650169272  1.0000
  Pd  Pd3       1.0  0.004899007574446968  0.001458405186199253  0.9998879812770741  1.0000
  Pd  Pd4       1.0  0.005033874492317284  0.008540465259277286  0.9998255614001658  1.0000
  Pd  Pd5       1.0  0.00510259780778933  0.0018935648961252993  0.9995802024951154  1.0000
  Pd  Pd6       1.0  0.00510259780778933  0.005226898205361084  0.9993261112113401  1.0000
  Pd  Pd7       1.0  0.009864244842066897  0.005222752222102441  0.9997090827014478  1.0000
  Pd  Pd8       1.0  0.009897402433024028  0.008560231514596868  0.9994531567826694  1.0000
  Pd  Pd9       1.0  0.009719894694246025  0.0018586141126696507  0.9999329107156005  1.0000
  Pd  Pd10      1.0  0.00023724730506375583  0.008084923270320364  0.9997772698403844  1.0000
  Pd  Pd11      1.0  0.00010259750489128048  0.001491533200947184  0.9995189107293732  1.0000
  Pd  Pd12      1.0  0.00010259750489128048  0.0048248665101829685  0.9992648194455979  1.0000
  C   C1        1.0  0.00857205301766106  0.007647587461378377  0.9999014733095384  1.0000
  O   O1        1.0  0.00857205301766106  0.007647587461378377  2.063191868316029e-05  1.0000
