data_image0
_chemical_formula_structural       HFe10Si6Fe10Si6
_chemical_formula_sum              "H1 Fe20 Si12"
_cell_length_a       6.650664329528809
_cell_length_b       6.65066454339107
_cell_length_c       102.57295989990234
_cell_angle_alpha    90.0
_cell_angle_beta     90.0
_cell_angle_gamma    119.99999893627073

_space_group_name_H-M_alt    "P 1"
_space_group_IT_number       1

loop_
  _space_group_symop_operation_xyz
  'x, y, z'

loop_
  _atom_site_type_symbol
  _atom_site_label
  _atom_site_symmetry_multiplicity
  _atom_site_fract_x
  _atom_site_fract_y
  _atom_site_fract_z
  _atom_site_occupancy
  H   H1        1.0  0.00999989830588696  0.009999954077788862  2.6949447626800158e-05  1.0000
  Fe  Fe1       1.0  1.0178478683598195e-07  0.007614296502771373  0.9994289040902439  1.0000
  Fe  Fe2       1.0  1.0174738762589496e-07  0.0023857948565571226  0.999202076521969  1.0000
  Fe  Fe3       1.0  0.007614352676920985  0.007614296502771373  0.999202076521969  1.0000
  Fe  Fe4       1.0  0.007614352671602171  4.559999959555306e-08  0.9994289040902439  1.0000
  Fe  Fe5       1.0  0.002385851068105945  0.0023857948565571226  0.9994289040902439  1.0000
  Fe  Fe6       1.0  0.0023858511001863406  4.559999959555306e-08  0.999202076521969  1.0000
  Fe  Fe7       1.0  0.0033334351316297948  0.006666712373280569  0.9993154903061064  1.0000
  Fe  Fe8       1.0  0.006666768638103977  0.00333337882435  0.9995423178743813  1.0000
  Fe  Fe9       1.0  0.006666768638103977  0.00333337882435  0.9993154903061064  1.0000
  Fe  Fe10      1.0  0.0033334351316297948  0.006666712373280569  0.9995423178743813  1.0000
  Si  Si1       1.0  0.003954467359827706  4.559999959555306e-08  0.9994289040902439  1.0000
  Si  Si2       1.0  0.003954467148264408  0.003954410757232683  0.999202076521969  1.0000
  Si  Si3       1.0  1.0188342077512384e-07  0.006045680440397885  0.999202076521969  1.0000
  Si  Si4       1.0  1.0170793924168174e-07  0.003954410757232683  0.9994289040902439  1.0000
  Si  Si5       1.0  0.006045736795982594  0.006045680440397885  0.9994289040902439  1.0000
  Si  Si6       1.0  0.006045736972098878  4.559999959555306e-08  0.999202076521969  1.0000
  Fe  Fe11      1.0  0.009999435604065859  0.007577661573742533  0.9998612908554486  1.0000
  Fe  Fe12      1.0  1.0174738762589496e-07  0.0023857948565571226  0.9996557319490662  1.0000
  Fe  Fe13      1.0  0.007614352676920985  0.007614296502771373  0.9996557319490662  1.0000
  Fe  Fe14      1.0  0.007578733517924471  5.621000090392172e-07  0.999861304220636  1.0000
  Fe  Fe15      1.0  0.0024226659995213303  0.0024221542523191362  0.9998612833012123  1.0000
  Fe  Fe16      1.0  0.0023858511001863406  4.559999959555306e-08  0.9996557319490662  1.0000
  Fe  Fe17      1.0  0.003333517577332467  0.006666633464692416  0.9997747849706381  1.0000
  Fe  Fe18      1.0  0.006666859522231867  0.0033330631899973918  0.0  1.0000
  Fe  Fe19      1.0  0.0066666884185436395  0.003333433478249171  0.9997746641028564  1.0000
  Fe  Fe20      1.0  0.003333746822505658  0.006667169655016827  1.766529115412219e-07  1.0000
  Si  Si7       1.0  0.003913591957497586  9.96000011943413e-08  0.9999068138458767  1.0000
  Si  Si8       1.0  0.003954467148264408  0.003954410757232683  0.9996557319490662  1.0000
  Si  Si9       1.0  1.0188342077512384e-07  0.006045680440397885  0.9996557319490662  1.0000
  Si  Si10      1.0  3.5713308948185354e-07  0.003914146356544704  0.9999068365085857  1.0000
  Si  Si11      1.0  0.006085745536216272  0.006085617241086693  0.9999068545225339  1.0000
  Si  Si12      1.0  0.006045736972098878  4.559999959555306e-08  0.9996557319490662  1.0000
