data_image0
_chemical_formula_structural       COAg12Ca6Ge12
_chemical_formula_sum              "C1 O1 Ag12 Ca6 Ge12"
_cell_length_a       6.384119511261926
_cell_length_b       8.940972044389072
_cell_length_c       105.43248748779297
_cell_angle_alpha    95.6084750581735
_cell_angle_beta     94.5688985532962
_cell_angle_gamma    101.48874565618515

_space_group_name_H-M_alt    "P 1"
_space_group_IT_number       1

loop_
  _space_group_symop_operation_xyz
  'x, y, z'

loop_
  _atom_site_type_symbol
  _atom_site_label
  _atom_site_symmetry_multiplicity
  _atom_site_fract_x
  _atom_site_fract_y
  _atom_site_fract_z
  _atom_site_occupancy
  C   C1        1.0  0.0049595082246983715  0.0029935627862019663  0.00013326969802888853  1.0000
  O   O1        1.0  0.0049595082246983715  0.0029935627862019663  0.00024708683925952146  1.0000
  Ag  Ag1       1.0  0.004418953057119042  0.0055685690659194095  0.9998905627487703  1.0000
  Ag  Ag2       1.0  0.00041666665939264606  0.0009924557124613921  0.9996899593401198  1.0000
  Ag  Ag3       1.0  0.008557698756781725  0.009840878357164273  4.3016322624851425e-05  1.0000
  Ag  Ag4       1.0  0.0010533277063661316  0.0028768910589809745  0.9999684402425754  1.0000
  Ag  Ag5       1.0  0.007329012031847604  0.008234493108139385  0.9997773306740371  1.0000
  Ag  Ag6       1.0  0.0034722223137505334  0.003770233690008407  0.9995966067792118  1.0000
  Ag  Ag7       1.0  0.0026388889563759275  0.0021035670747109733  0.9993165502776038  1.0000
  Ag  Ag8       1.0  0.008750000487794087  0.007659122601728066  0.9991298460013162  1.0000
  Ag  Ag9       1.0  0.00652777806872142  0.006548011667555423  0.9995032547841238  1.0000
  Ag  Ag10      1.0  0.009583333970038486  0.009325789645102438  0.9994099025070743  1.0000
  Ag  Ag11      1.0  0.005694444586477021  0.004881344624181051  0.9992231982783657  1.0000
  Ag  Ag12      1.0  0.0018055556751082427  0.00043690021862026186  0.9990364937743672  1.0000
  Ca  Ca1       1.0  0.004999999962046205  0.00015912240481267517  0.9995499311514127  1.0000
  Ca  Ca2       1.0  0.002780384869983332  0.008993225233838225  0.9999032602409551  1.0000
  Ca  Ca3       1.0  0.008888888990480414  0.004603567211695594  0.9997366353766345  1.0000
  Ca  Ca4       1.0  0.0033333334968954588  0.006825789508117817  0.9989898176885933  1.0000
  Ca  Ca5       1.0  0.0011111111724722688  0.005714678145868237  0.9993632264683097  1.0000
  Ca  Ca6       1.0  0.00722222273624613  0.0012702335530237875  0.9991765220894245  1.0000
  Ge  Ge1       1.0  0.0014519853326215592  0.005831683987139007  5.533529999404322e-05  1.0000
  Ge  Ge2       1.0  0.007325124102256954  0.0012817750423570144  0.99985543008356  1.0000
  Ge  Ge3       1.0  0.0034792764237609355  0.006767412228063611  0.9996639153754486  1.0000
  Ge  Ge4       1.0  0.004221492766197959  0.002535512329533599  0.9998192252871202  1.0000
  Ge  Ge5       1.0  0.00040961276080260707  0.007995277722344667  0.9996226511338716  1.0000
  Ge  Ge6       1.0  0.008391550465988563  0.006894554075062311  2.4600063496836935e-06  1.0000
  Ge  Ge7       1.0  0.009590387475323165  0.002322967635219162  0.9994772109940928  1.0000
  Ge  Ge8       1.0  0.005701498696487423  0.007878523162236254  0.9992905065919351  1.0000
  Ge  Ge9       1.0  0.0018126096465768268  0.0034340787834302743  0.9991038020874901  1.0000
  Ge  Ge10      1.0  0.00263183503034598  0.00910638908459425  0.9992492420712232  1.0000
  Ge  Ge11      1.0  0.008742946377783686  0.0046619440636728625  0.9990625374050794  1.0000
  Ge  Ge12      1.0  0.0065207242514033785  0.0035508331295002185  0.9994359461892988  1.0000
