data_image0
_chemical_formula_structural       HAs3Mn3Pd6As3Mn3Pd6As3Mn3Pd6As3Mn3Pd6
_chemical_formula_sum              "H1 As12 Mn12 Pd24"
_cell_length_a       8.789907108741195
_cell_length_b       8.789907455444336
_cell_length_c       102.29618072509766
_cell_angle_alpha    90.0
_cell_angle_beta     90.0
_cell_angle_gamma    120.00000130477461

_space_group_name_H-M_alt    "P 1"
_space_group_IT_number       1

loop_
  _space_group_symop_operation_xyz
  'x, y, z'

loop_
  _atom_site_type_symbol
  _atom_site_label
  _atom_site_symmetry_multiplicity
  _atom_site_fract_x
  _atom_site_fract_y
  _atom_site_fract_z
  _atom_site_occupancy
  H   H1        1.0  0.0008333359873980479  0.004999994726827763  0.0001204396723936497  1.0000
  As  As1       1.0  0.0008333288302321382  4.876656238428211e-09  0.999238270812971  1.0000
  As  As2       1.0  0.0024999956053777866  0.0033333381148344487  0.9995890621964303  1.0000
  As  As3       1.0  0.0041666710058259416  0.0016666509593972032  0.9999294914236959  1.0000
  Mn  Mn1       1.0  0.004166662197006361  0.0016666716130201635  0.9994136665047006  1.0000
  Mn  Mn2       1.0  0.0008333394130501072  0.0099999947104906  0.9997556444617888  1.0000
  Mn  Mn3       1.0  0.0024999956053777866  0.0033333381148344487  0.9990628748299077  1.0000
  Pd  Pd1       1.0  0.004166662197006361  0.0016666716130201635  0.9991505726757726  1.0000
  Pd  Pd2       1.0  0.0008333288302321382  4.876656238428211e-09  0.9995013643505655  1.0000
  Pd  Pd3       1.0  0.0025000036801290696  0.003333329649682122  0.9998680911034433  1.0000
  Pd  Pd4       1.0  0.0008333359873980479  0.009999994692922601  0.0  1.0000
  Pd  Pd5       1.0  0.0024999956053777866  0.0033333381148344487  0.9993259686588358  1.0000
  Pd  Pd6       1.0  0.004166662197006361  0.0016666716130201635  0.9996767600422951  1.0000
  As  As4       1.0  0.0008333288302321382  0.005000004710309045  0.999238270812971  1.0000
  As  As5       1.0  0.0024999956053777866  0.008333337657114782  0.9995890621964303  1.0000
  As  As6       1.0  0.0041666710058259416  0.006666650793050009  0.9999294914236959  1.0000
  Mn  Mn4       1.0  0.004166662197006361  0.006666671393696155  0.9994136665047006  1.0000
  Mn  Mn5       1.0  0.0008333394130501072  0.004999994744395762  0.9997556444617888  1.0000
  Mn  Mn6       1.0  0.0024999956053777866  0.008333337657114782  0.9990628748299077  1.0000
  Pd  Pd7       1.0  0.004166662197006361  0.006666671393696155  0.9991505726757726  1.0000
  Pd  Pd8       1.0  0.0008333288302321382  0.005000004710309045  0.9995013643505655  1.0000
  Pd  Pd9       1.0  0.0025000036801290696  0.008333329403869707  0.9998680911034433  1.0000
  Pd  Pd10      1.0  0.0008333359873980479  0.004999994726827763  0.0  1.0000
  Pd  Pd11      1.0  0.0024999956053777866  0.008333337657114782  0.9993259686588358  1.0000
  Pd  Pd12      1.0  0.004166662197006361  0.006666671393696155  0.9996767600422951  1.0000
  As  As7       1.0  0.0058333290333243675  5.074620153913374e-09  0.999238270812971  1.0000
  As  As8       1.0  0.007499995380263509  0.0033333380986951106  0.9995890621964303  1.0000
  As  As9       1.0  0.009166671025401096  0.001666651065602581  0.9999294914236959  1.0000
  Mn  Mn7       1.0  0.009166662216581516  0.0016666716662487276  0.9994136665047006  1.0000
  Mn  Mn8       1.0  0.005833339310280545  0.009999994676058402  0.9997556444617888  1.0000
  Mn  Mn9       1.0  0.007499995380263509  0.0033333380986951106  0.9990628748299077  1.0000
  Pd  Pd13      1.0  0.009166662216581516  0.0016666716662487276  0.9991505726757726  1.0000
  Pd  Pd14      1.0  0.0058333290333243675  5.074620153913374e-09  0.9995013643505655  1.0000
  Pd  Pd15      1.0  0.007500003699704224  0.003333329702910686  0.9998680911034433  1.0000
  Pd  Pd16      1.0  0.005833335884628486  0.009999994658490401  0.0  1.0000
  Pd  Pd17      1.0  0.007499995380263509  0.0033333380986951106  0.9993259686588358  1.0000
  Pd  Pd18      1.0  0.009166662216581516  0.0016666716662487276  0.9996767600422951  1.0000
  As  As10      1.0  0.0058333290333243675  0.005000004828807739  0.999238270812971  1.0000
  As  As11      1.0  0.007499995380263509  0.00833333798532473  0.9995890621964303  1.0000
  As  As12      1.0  0.009166671025401096  0.006666650819790167  0.9999294914236959  1.0000
  Mn  Mn10      1.0  0.009166662216581516  0.006666671420436313  0.9994136665047006  1.0000
  Mn  Mn11      1.0  0.005833339310280545  0.0049999947099635626  0.9997556444617888  1.0000
  Mn  Mn12      1.0  0.007499995380263509  0.00833333798532473  0.9990628748299077  1.0000
  Pd  Pd19      1.0  0.009166662216581516  0.006666671420436313  0.9991505726757726  1.0000
  Pd  Pd20      1.0  0.0058333290333243675  0.005000004828807739  0.9995013643505655  1.0000
  Pd  Pd21      1.0  0.007500003699704224  0.008333329430609866  0.9998680911034433  1.0000
  Pd  Pd22      1.0  0.005833335884628486  0.004999994904302816  0.0  1.0000
  Pd  Pd23      1.0  0.007499995380263509  0.00833333798532473  0.9993259686588358  1.0000
  Pd  Pd24      1.0  0.009166662216581516  0.006666671420436313  0.9996767600422951  1.0000
