data_image0
_chemical_formula_structural       HAg6Sn2Ag6Sn2
_chemical_formula_sum              "H1 Ag12 Sn4"
_cell_length_a       5.2833123207092285
_cell_length_b       6.181336879730225
_cell_length_c       104.6798095703125
_cell_angle_alpha    90.0
_cell_angle_beta     90.0
_cell_angle_gamma    90.0

_space_group_name_H-M_alt    "P 1"
_space_group_IT_number       1

loop_
  _space_group_symop_operation_xyz
  'x, y, z'

loop_
  _atom_site_type_symbol
  _atom_site_label
  _atom_site_symmetry_multiplicity
  _atom_site_fract_x
  _atom_site_fract_y
  _atom_site_fract_z
  _atom_site_occupancy
  H   H1        1.0  0.003284323355566368  0.009999998891091962  0.00012245394550031076  1.0000
  Ag  Ag1       1.0  0.006744216463104526  5.999999683556902e-10  0.9992891122495844  1.0000
  Ag  Ag2       1.0  0.0032557838753459077  0.005000000349547098  0.9995257510344671  1.0000
  Ag  Ag3       1.0  0.008353513017345179  0.0025049542515649874  0.9995257510344671  1.0000
  Ag  Ag4       1.0  0.001646486792276453  0.002495046851316376  0.9992891122495844  1.0000
  Ag  Ag5       1.0  0.008353513017345179  0.007495046748862915  0.9995257510344671  1.0000
  Ag  Ag6       1.0  0.001646486792276453  0.007504953998444674  0.9992891122495844  1.0000
  Sn  Sn1       1.0  0.003306200297989812  5.999999683556902e-10  0.9995257510344671  1.0000
  Sn  Sn2       1.0  0.006693799335355553  0.005000000349547098  0.9992891122495844  1.0000
  Ag  Ag7       1.0  0.006679487112664914  2.499999922031375e-09  0.9997633888309995  1.0000
  Ag  Ag8       1.0  0.003286934359636889  0.005000004266885275  0.9999997830587412  1.0000
  Ag  Ag9       1.0  0.008330685240736184  0.002479860235207687  0.0  1.0000
  Ag  Ag10      1.0  0.0017090629281115938  0.002447438385790919  0.9997619004203682  1.0000
  Ag  Ag11      1.0  0.0083306803050007  0.007520139409218539  0.0  1.0000
  Ag  Ag12      1.0  0.0017090613416251884  0.0075525599026336305  0.9997619004203682  1.0000
  Sn  Sn3       1.0  0.003284323355566368  0.009999998891091962  4.756764504038892e-06  1.0000
  Sn  Sn4       1.0  0.006759253533806099  0.0050000009522145105  0.9997707841933862  1.0000
