data_image0
_chemical_formula_structural       HCd24
_chemical_formula_sum              "H1 Cd24"
_cell_length_a       5.312955379486084
_cell_length_b       12.501526571515642
_cell_length_c       100.67436218261719
_cell_angle_alpha    97.04694073323002
_cell_angle_beta     90.0
_cell_angle_gamma    102.26844542040506

_space_group_name_H-M_alt    "P 1"
_space_group_IT_number       1

loop_
  _space_group_symop_operation_xyz
  'x, y, z'

loop_
  _atom_site_type_symbol
  _atom_site_label
  _atom_site_symmetry_multiplicity
  _atom_site_fract_x
  _atom_site_fract_y
  _atom_site_fract_z
  _atom_site_occupancy
  H   H1        1.0  0.006561927652299817  0.006457188637932968  0.00024579487741071594  1.0000
  Cd  Cd1       1.0  0.003541666666666667  0.00375  0.9999047848324706  1.0000
  Cd  Cd2       1.0  0.006041666666666667  0.008749999999999999  0.9999809570612227  1.0000
  Cd  Cd3       1.0  0.001041666666666666  0.008749999999999999  0.0001333014003163178  1.0000
  Cd  Cd4       1.0  0.008541666666666668  0.00375  5.712917156413619e-05  1.0000
  Cd  Cd5       1.0  0.008958333333333334  0.00125  0.9998666987180944  1.0000
  Cd  Cd6       1.0  0.0014583333333333334  0.0062499999999999995  0.9999428709468466  1.0000
  Cd  Cd7       1.0  0.006458333333333333  0.0062499999999999995  9.521528594022698e-05  1.0000
  Cd  Cd8       1.0  0.003958333333333334  0.00125  1.90430571880454e-05  1.0000
  Cd  Cd9       1.0  0.003541666666666667  0.00375  0.9996000958582565  1.0000
  Cd  Cd10      1.0  0.006041666666666667  0.008749999999999999  0.9996762680870086  1.0000
  Cd  Cd11      1.0  0.001041666666666666  0.008749999999999999  0.9998286124261022  1.0000
  Cd  Cd12      1.0  0.008541666666666668  0.00375  0.99975244019735  1.0000
  Cd  Cd13      1.0  0.008958333333333334  0.00125  0.9995620097438803  1.0000
  Cd  Cd14      1.0  0.0014583333333333334  0.0062499999999999995  0.9996381819726325  1.0000
  Cd  Cd15      1.0  0.006458333333333333  0.0062499999999999995  0.9997905263117262  1.0000
  Cd  Cd16      1.0  0.003958333333333334  0.00125  0.9997143540829739  1.0000
  Cd  Cd17      1.0  0.003541666666666667  0.00375  0.9992954068840423  1.0000
  Cd  Cd18      1.0  0.006041666666666667  0.008749999999999999  0.9993715791127945  1.0000
  Cd  Cd19      1.0  0.001041666666666666  0.008749999999999999  0.999523923747915  1.0000
  Cd  Cd20      1.0  0.008541666666666668  0.00375  0.9994477515191629  1.0000
  Cd  Cd21      1.0  0.008958333333333334  0.00125  0.9992573207696662  1.0000
  Cd  Cd22      1.0  0.0014583333333333334  0.0062499999999999995  0.9993334929984184  1.0000
  Cd  Cd23      1.0  0.006458333333333333  0.0062499999999999995  0.9994858376335389  1.0000
  Cd  Cd24      1.0  0.003958333333333334  0.00125  0.9994096654047867  1.0000
