data_image0
_chemical_formula_structural       COAu4Ca2In2
_chemical_formula_sum              "C1 O1 Au4 Ca2 In2"
_cell_length_a       5.064404487609863
_cell_length_b       5.064404487609863
_cell_length_c       98.64859771728516
_cell_angle_alpha    90.0
_cell_angle_beta     90.0
_cell_angle_gamma    90.0

_space_group_name_H-M_alt    "P 1"
_space_group_IT_number       1

loop_
  _space_group_symop_operation_xyz
  'x, y, z'

loop_
  _atom_site_type_symbol
  _atom_site_label
  _atom_site_symmetry_multiplicity
  _atom_site_fract_x
  _atom_site_fract_y
  _atom_site_fract_z
  _atom_site_occupancy
  C   C1        1.0  0.0025000065687569876  0.00499999290897902  0.00017048499992536776  1.0000
  O   O1        1.0  0.0025000065687569876  0.00499999290897902  0.00029212914486380543  1.0000
  Au  Au1       1.0  1.6399999005730298e-08  0.002500007488235849  0.999836678232827  1.0000
  Au  Au2       1.0  0.005000003574933814  0.007499984582178448  0.9998366785349327  1.0000
  Au  Au3       1.0  0.005000013137513975  0.007500000029423324  0.9994532406038398  1.0000
  Au  Au4       1.0  1.3399999991775119e-08  0.0024999999485091837  0.9994532406038398  1.0000
  Ca  Ca1       1.0  0.009999986553541129  0.007499976490764466  0.0  1.0000
  Ca  Ca2       1.0  0.005000013137513975  0.0024999999485091837  0.9996347473329416  1.0000
  In  In1       1.0  0.005000026745801127  0.002500010062776662  0.9999898141978206  1.0000
  In  In2       1.0  1.3399999991775119e-08  0.007500000029423324  0.9996347473329416  1.0000
