data_image0
_chemical_formula_structural       COSi2Mo6Si2Mo6
_chemical_formula_sum              "C1 O1 Si4 Mo12"
_cell_length_a       4.911006450653076
_cell_length_b       4.911006450653076
_cell_length_c       104.37704467773438
_cell_angle_alpha    90.0
_cell_angle_beta     90.0
_cell_angle_gamma    90.0

_space_group_name_H-M_alt    "P 1"
_space_group_IT_number       1

loop_
  _space_group_symop_operation_xyz
  'x, y, z'

loop_
  _atom_site_type_symbol
  _atom_site_label
  _atom_site_symmetry_multiplicity
  _atom_site_fract_x
  _atom_site_fract_y
  _atom_site_fract_z
  _atom_site_occupancy
  C   C1        1.0  0.004999998270484479  0.002456914476222111  0.0001521788840696831  1.0000
  O   O1        1.0  0.004999998270484479  0.002456914476222111  0.0002671463536996228  1.0000
  Si  Si1       1.0  0.005000003201120833  0.005000002063281674  0.9993018218573285  1.0000
  Si  Si2       1.0  3.2999997056645296e-09  2.449999967813319e-09  0.999537074997142  1.0000
  Mo  Mo1       1.0  0.005000003201120833  0.0025000023591198557  0.999537074997142  1.0000
  Mo  Mo2       1.0  0.005000003201120833  0.007500002336363072  0.999537074997142  1.0000
  Mo  Mo3       1.0  0.007500003094922512  2.449999967813319e-09  0.9993018218573285  1.0000
  Mo  Mo4       1.0  0.002500003117679295  2.449999967813319e-09  0.9993018218573285  1.0000
  Mo  Mo5       1.0  3.2999997056645296e-09  0.005000002063281674  0.9994194487127609  1.0000
  Mo  Mo6       1.0  3.2999997056645296e-09  0.005000002063281674  0.9991841952874218  1.0000
  Si  Si3       1.0  0.005000005097519431  0.005000011165994943  0.9997670544784015  1.0000
  Si  Si4       1.0  0.009999994265290642  5.849999823491479e-09  0.0  1.0000
  Mo  Mo7       1.0  0.004999998270484479  0.002456914476222111  0.9999862370931447  1.0000
  Mo  Mo8       1.0  0.004999987650652332  0.007543141611662814  0.9999862370931447  1.0000
  Mo  Mo9       1.0  0.00751702972009181  0.009999995782409518  0.9997667289791731  1.0000
  Mo  Mo10      1.0  0.002482975165030978  0.009999997299528397  0.9997667289791731  1.0000
  Mo  Mo11      1.0  0.009999996540968958  0.005000002063281674  0.9998989981604292  1.0000
  Mo  Mo12      1.0  3.2999997056645296e-09  0.005000002063281674  0.9996547018525744  1.0000
