data_image0
_chemical_formula_structural       COIn20Pt20
_chemical_formula_sum              "C1 O1 In20 Pt20"
_cell_length_a       9.001570667409762
_cell_length_b       12.151750593807666
_cell_length_c       99.42688751220703
_cell_angle_alpha    86.90071831591271
_cell_angle_beta     86.42059363825139
_cell_angle_gamma    80.95969892484993

_space_group_name_H-M_alt    "P 1"
_space_group_IT_number       1

loop_
  _space_group_symop_operation_xyz
  'x, y, z'

loop_
  _atom_site_type_symbol
  _atom_site_label
  _atom_site_symmetry_multiplicity
  _atom_site_fract_x
  _atom_site_fract_y
  _atom_site_fract_z
  _atom_site_occupancy
  C   C1        1.0  0.009801101895716495  0.003921628200545029  4.453693118748408e-05  1.0000
  O   O1        1.0  0.009801101895716495  0.003921628200545029  0.00016522887497604709  1.0000
  In  In1       1.0  0.00958448841349203  0.005310262619419107  0.9994936727427485  1.0000
  In  In2       1.0  0.007807437499844133  0.0038528007319508883  0.9999304117068222  1.0000
  In  In3       1.0  0.00013099214796519809  0.003133309137883498  0.999683731271368  1.0000
  In  In4       1.0  0.0026809325812264606  0.0043866309286359415  0.99932632324872  1.0000
  In  In5       1.0  0.006444760351454352  0.00616244362946424  0.9996742815759864  1.0000
  In  In6       1.0  0.00898804355216566  0.007483893738452646  0.9992910660350942  1.0000
  In  In7       1.0  0.00839708125325302  0.0015740705344743347  0.9994981950439246  1.0000
  In  In8       1.0  0.0061836823015517335  0.00031780054318650643  0.9998879165965577  1.0000
  In  In9       1.0  0.008497038451228832  0.007693679241260603  0.9998697815695038  1.0000
  In  In10      1.0  0.0007718954643233375  0.009046454393630386  0.9994891503303425  1.0000
  In  In11      1.0  0.005834488060372052  0.0009352625230917244  0.9993086947396048  1.0000
  In  In12      1.0  0.0034969509220634212  0.009640327001608932  0.9996906211098926  1.0000
  In  In13      1.0  0.0035239664449197385  0.007434496435146052  0.9999296708202403  1.0000
  In  In14      1.0  0.006430932918159294  0.008761631102646697  0.9995113012514417  1.0000
  In  In15      1.0  0.00028438178047750093  0.0006667587997686671  0.9998332152281656  1.0000
  In  In16      1.0  0.0027380431774303316  0.0018588938254580241  0.999476044426082  1.0000
  In  In17      1.0  0.001958713567770864  0.006146353849221331  0.9996914160845876  1.0000
  In  In18      1.0  0.004647080831845332  0.007199070447468957  0.9993132171430172  1.0000
  In  In19      1.0  0.007021895236798207  0.004671454530353124  0.9993041721391096  1.0000
  In  In20      1.0  0.004716169426017373  0.0033547508754630277  0.9996888347486117  1.0000
  Pt  Pt1       1.0  0.004584488015420522  0.005310262619419107  0.9994936728379182  1.0000
  Pt  Pt2       1.0  0.0020082168512057237  0.0041201949813388875  0.9998092226382508  1.0000
  Pt  Pt3       1.0  0.00899342304403691  0.007420410885929924  0.9995801126670888  1.0000
  Pt  Pt4       1.0  0.0015156041196532188  0.00866412666149447  0.9992145765198104  1.0000
  Pt  Pt5       1.0  0.00015337209874375504  0.0032063980055941177  0.9994028126496217  1.0000
  Pt  Pt6       1.0  0.007652897642110078  0.002042007829668647  0.999773634407978  1.0000
  Pt  Pt7       1.0  0.007369007807824534  0.003938888824587771  0.9995773211121172  1.0000
  Pt  Pt8       1.0  0.00986900861019409  0.00518888887430513  0.9992073650117738  1.0000
  Pt  Pt9       1.0  0.009124839102102891  0.005503152299304545  0.9997904803535391  1.0000
  Pt  Pt10      1.0  0.0017999683525136718  0.006681635792783458  0.9994100242673528  1.0000
  Pt  Pt11      1.0  0.00840011360568764  0.009682198961193572  0.9996696463319796  1.0000
  Pt  Pt12      1.0  0.0008344879732939092  0.0009352625230917244  0.9993086945332756  1.0000
  Pt  Pt13      1.0  0.005265604333731996  0.003039126748499848  0.9993995547216306  1.0000
  Pt  Pt14      1.0  0.0027198478730066926  0.001787861236634184  0.999754990379455  1.0000
  Pt  Pt15      1.0  0.006403372693724347  0.008831397607855247  0.9992178345591833  1.0000
  Pt  Pt16      1.0  0.00396056270602074  0.0075486885077808066  0.9995971313795118  1.0000
  Pt  Pt17      1.0  0.0011736247431686718  0.008455536861165748  0.9997631033341203  1.0000
  Pt  Pt18      1.0  0.0036190081509839085  0.009563889048315885  0.9993923429050939  1.0000
  Pt  Pt19      1.0  0.008049968746975274  0.0023066359295061943  0.9992250463723453  1.0000
  Pt  Pt20      1.0  0.0055912540589556714  0.0010440040972174824  0.9996077798162102  1.0000
