data_image0
_chemical_formula_structural       COFe6Pt2Fe6Pt2Fe6Pt2Fe6Pt2
_chemical_formula_sum              "C1 O1 Fe24 Pt8"
_cell_length_a       7.397952556610107
_cell_length_b       5.0741091990955
_cell_length_c       100.44465637207031
_cell_angle_alpha    93.60362720255999
_cell_angle_beta     90.0
_cell_angle_gamma    90.0

_space_group_name_H-M_alt    "P 1"
_space_group_IT_number       1

loop_
  _space_group_symop_operation_xyz
  'x, y, z'

loop_
  _atom_site_type_symbol
  _atom_site_label
  _atom_site_symmetry_multiplicity
  _atom_site_fract_x
  _atom_site_fract_y
  _atom_site_fract_z
  _atom_site_occupancy
  C   C1        1.0  0.0012499992648068781  0.009027759043714874  6.528425158097946e-05  1.0000
  O   O1        1.0  0.0012499992648068781  0.009027759043714874  0.000184753268173004  1.0000
  Fe  Fe1       1.0  0.0037499990533129664  0.0009722406693891359  0.9995104309319911  1.0000
  Fe  Fe2       1.0  0.0037499990533129664  0.005972240617894984  0.9992578483744035  1.0000
  Fe  Fe3       1.0  0.0012499991389176449  0.008472240868009436  0.9991315573931895  1.0000
  Fe  Fe4       1.0  0.0012499991389176449  0.0034722407355959025  0.9993841396534893  1.0000
  Fe  Fe5       1.0  0.0012499991389176449  0.0034722407355959025  0.9991315573942525  1.0000
  Fe  Fe6       1.0  0.0012499991389176449  0.008472240868009436  0.9993841396524261  1.0000
  Pt  Pt1       1.0  0.0037499990533129664  0.0009722406693891359  0.9992578483760505  1.0000
  Pt  Pt2       1.0  0.0037499990533129664  0.005972240617894984  0.9995104309303441  1.0000
  Fe  Fe7       1.0  0.0037500003122052984  0.0014319039524839506  4.546505448516276e-06  1.0000
  Fe  Fe8       1.0  0.0037500010675406976  0.006171099630485027  0.9997636632885119  1.0000
  Fe  Fe9       1.0  0.0012499991389176449  0.008472240868009436  0.9996367219116629  1.0000
  Fe  Fe10      1.0  0.0012499991389176449  0.0037065111730421956  0.9998985263292821  1.0000
  Fe  Fe11      1.0  0.0012499991389176449  0.0034722407355959025  0.9996367219127259  1.0000
  Fe  Fe12      1.0  0.0012499992648068781  0.008812782729376962  0.9998925045006801  1.0000
  Pt  Pt3       1.0  0.0037499990533129664  0.0011612690805547913  0.999760076673589  1.0000
  Pt  Pt4       1.0  0.0037499990533129664  0.006444028199068599  1.4866680858336509e-05  1.0000
  Fe  Fe13      1.0  0.00874999963743901  0.0009722406693891359  0.9995104309319911  1.0000
  Fe  Fe14      1.0  0.00874999963743901  0.005972240617894984  0.9992578483744035  1.0000
  Fe  Fe15      1.0  0.006249999093597521  0.008472240868009436  0.9991315573931895  1.0000
  Fe  Fe16      1.0  0.006249999093597521  0.0034722407355959025  0.9993841396534893  1.0000
  Fe  Fe17      1.0  0.006249999093597521  0.0034722407355959025  0.9991315573942525  1.0000
  Fe  Fe18      1.0  0.006249999093597521  0.008472240868009436  0.9993841396524261  1.0000
  Pt  Pt5       1.0  0.00874999963743901  0.0009722406693891359  0.9992578483760505  1.0000
  Pt  Pt6       1.0  0.00874999963743901  0.005972240617894984  0.9995104309303441  1.0000
  Fe  Fe19      1.0  0.008750000644552874  0.0014319039524839506  4.546505448516276e-06  1.0000
  Fe  Fe20      1.0  0.008750000644552874  0.006171099630485027  0.9997636632885119  1.0000
  Fe  Fe21      1.0  0.006249999093597521  0.008472240868009436  0.9996367219116629  1.0000
  Fe  Fe22      1.0  0.006249999093597521  0.0037065111730421956  0.9998985263292821  1.0000
  Fe  Fe23      1.0  0.006249999093597521  0.0034722407355959025  0.9996367219127259  1.0000
  Fe  Fe24      1.0  0.006249999093597521  0.008812782729376962  0.9998925045006801  1.0000
  Pt  Pt7       1.0  0.00874999963743901  0.0011612690805547913  0.999760076673589  1.0000
  Pt  Pt8       1.0  0.00874999963743901  0.006444028199068599  1.4866680858336509e-05  1.0000
