data_image0
_chemical_formula_structural       HGe4Se8
_chemical_formula_sum              "H1 Ge4 Se8"
_cell_length_a       6.1449055671691895
_cell_length_b       6.537306966462656
_cell_length_c       101.39842224121094
_cell_angle_alpha    84.43475238585654
_cell_angle_beta     90.0
_cell_angle_gamma    118.03348737691118

_space_group_name_H-M_alt    "P 1"
_space_group_IT_number       1

loop_
  _space_group_symop_operation_xyz
  'x, y, z'

loop_
  _atom_site_type_symbol
  _atom_site_label
  _atom_site_symmetry_multiplicity
  _atom_site_fract_x
  _atom_site_fract_y
  _atom_site_fract_z
  _atom_site_occupancy
  H   H1        1.0  0.006652800016777537  0.002153883395345173  0.00011093883382569865  1.0000
  Ge  Ge1       1.0  0.009663730702380417  0.008333333333333333  0.9990737048659083  1.0000
  Ge  Ge2       1.0  0.00633039733657063  0.001666666601713759  0.9995897946581047  1.0000
  Ge  Ge3       1.0  0.009663730702380417  0.008333333333333333  0.9994607722244466  1.0000
  Ge  Ge4       1.0  0.006818700622356877  0.002485684606503854  0.9999883928377761  1.0000
  Se  Se1       1.0  0.0003362692554700106  0.0050000001299058145  0.9995252837341735  1.0000
  Se  Se2       1.0  0.0036696025580604317  0.001666666601713759  0.9990091937672537  1.0000
  Se  Se3       1.0  0.007217329061421347  0.008440529663421306  0.9996460078907308  1.0000
  Se  Se4       1.0  0.0005506622414610272  0.005107196459993789  0.9991299176278674  1.0000
  Se  Se5       1.0  0.003776799284332451  0.0015594701092435158  0.999404559580662  1.0000
  Se  Se6       1.0  0.000718340781298902  0.0030106419623219093  0.999981176276423  1.0000
  Se  Se7       1.0  0.007324525565764278  0.008333333333333333  0.999267238692134  1.0000
  Se  Se8       1.0  0.00426158291751463  0.001702389726590868  0.9997954344889433  1.0000
