data_image0
_chemical_formula_structural       COPt4Rh12
_chemical_formula_sum              "C1 O1 Pt4 Rh12"
_cell_length_a       4.750413417816162
_cell_length_b       4.750413162248805
_cell_length_c       102.9769515991211
_cell_angle_alpha    90.0
_cell_angle_beta     90.0
_cell_angle_gamma    109.31081211661676

_space_group_name_H-M_alt    "P 1"
_space_group_IT_number       1

loop_
  _space_group_symop_operation_xyz
  'x, y, z'

loop_
  _atom_site_type_symbol
  _atom_site_label
  _atom_site_symmetry_multiplicity
  _atom_site_fract_x
  _atom_site_fract_y
  _atom_site_fract_z
  _atom_site_occupancy
  C   C1        1.0  0.007499999440066018  0.009999999966761836  0.00010699923485235485  1.0000
  O   O1        1.0  0.007499999440066018  0.009999999966761836  0.0002235298227917313  1.0000
  Pt  Pt1       1.0  0.004999999865270176  0.0050000003988579685  0.9992076986776893  1.0000
  Pt  Pt2       1.0  4.999999961446899e-11  1.0000000443993676e-10  0.9994745623831488  1.0000
  Pt  Pt3       1.0  0.004999999590479911  0.004999999567903867  0.9997385444561709  1.0000
  Pt  Pt4       1.0  0.009999999455750086  0.009999999966761836  0.0  1.0000
  Rh  Rh1       1.0  0.005000000064437384  1.0000000443993676e-10  0.9990742669696634  1.0000
  Rh  Rh2       1.0  2.2600373363096169e-10  0.0050000003988579685  0.9993411303857151  1.0000
  Rh  Rh3       1.0  2.2600373363096169e-10  0.0050000003988579685  0.9990742669696634  1.0000
  Rh  Rh4       1.0  0.005000000064437384  1.0000000443993676e-10  0.9993411303857151  1.0000
  Rh  Rh5       1.0  4.999999961446899e-11  1.0000000443993676e-10  0.9992076986776893  1.0000
  Rh  Rh6       1.0  0.004999999865270176  0.0050000003988579685  0.9994745623831488  1.0000
  Rh  Rh7       1.0  0.005000000064437384  1.0000000443993676e-10  0.9996079938017669  1.0000
  Rh  Rh8       1.0  0.009999999229746353  0.004999999567903867  0.9998776019604153  1.0000
  Rh  Rh9       1.0  2.2600373363096169e-10  0.0050000003988579685  0.9996079938017669  1.0000
  Rh  Rh10      1.0  0.004999999228331103  0.009999999966761836  0.9998776025392307  1.0000
  Rh  Rh11      1.0  0.009999999455750086  0.009999999966761836  0.9997396262621417  1.0000
  Rh  Rh12      1.0  0.004999999060983083  0.004999999152426817  0.999992968550598  1.0000
