data_image0
_chemical_formula_structural       COSn16Pd16
_chemical_formula_sum              "C1 O1 Sn16 Pd16"
_cell_length_a       7.39004577825005
_cell_length_b       10.38748462662461
_cell_length_c       109.43994140625
_cell_angle_alpha    84.4194537430146
_cell_angle_beta     72.45467483766436
_cell_angle_gamma    64.83122741355535

_space_group_name_H-M_alt    "P 1"
_space_group_IT_number       1

loop_
  _space_group_symop_operation_xyz
  'x, y, z'

loop_
  _atom_site_type_symbol
  _atom_site_label
  _atom_site_symmetry_multiplicity
  _atom_site_fract_x
  _atom_site_fract_y
  _atom_site_fract_z
  _atom_site_occupancy
  C   C1        1.0  0.007980676727501305  0.008876507703152457  0.9999162858164972  1.0000
  O   O1        1.0  0.007980676727501305  0.008876507703152457  2.5935220220386792e-05  1.0000
  Sn  Sn1       1.0  0.004893257377518404  0.007739451229371912  0.999723443331114  1.0000
  Sn  Sn2       1.0  0.002319856217726094  0.005344014594915189  0.9990328646899218  1.0000
  Sn  Sn3       1.0  0.007319855745845516  0.0003440143639489577  0.9994833397520219  1.0000
  Sn  Sn4       1.0  0.009819855688706742  0.0028440144918229658  0.9992581023466428  1.0000
  Sn  Sn5       1.0  0.009816650942939553  0.00718501411342058  0.9995976802061218  1.0000
  Sn  Sn6       1.0  0.007444489802092717  0.0043857993386567234  0.9998079759741646  1.0000
  Sn  Sn7       1.0  0.0023770371208036946  0.009693692004438663  0.99937130967954  1.0000
  Sn  Sn8       1.0  0.0048770369616607965  0.002193692091670544  0.9991460721785786  1.0000
  Sn  Sn9       1.0  0.007016749644485044  0.008147121497630439  0.9990601734114676  1.0000
  Sn  Sn10      1.0  0.004516749036386686  0.005647121592792492  0.9992854108283299  1.0000
  Sn  Sn11      1.0  0.009382976294338388  0.0007173714511818416  0.9997526651618678  1.0000
  Sn  Sn12      1.0  0.0020167490783536738  0.0031471214897002683  0.9995106476891557  1.0000
  Sn  Sn13      1.0  0.007680143651749461  0.006890585101723413  0.9993440011984939  1.0000
  Sn  Sn14      1.0  0.0051218651870865725  0.004441554388767284  0.9995774573670546  1.0000
  Sn  Sn15      1.0  0.00018014430214310305  0.00939058500656136  0.9991187640857654  1.0000
  Sn  Sn16      1.0  0.0025138255125304845  0.0018396268058966164  0.99979996643949  1.0000
  Pd  Pd1       1.0  0.00820069935408701  0.005370978762519773  0.9995584999177768  1.0000
  Pd  Pd2       1.0  0.005575061994865019  0.002743631016347978  0.9997765378429128  1.0000
  Pd  Pd3       1.0  0.00069802267599245  0.007867978683649465  0.9993415384602107  1.0000
  Pd  Pd4       1.0  0.003198021942643136  0.0003679788452266994  0.9991163015148852  1.0000
  Pd  Pd5       1.0  0.006518957450632712  0.00968055329704284  0.9997291734435346  1.0000
  Pd  Pd6       1.0  0.003998870662537338  0.007169727915704388  0.9990626359092512  1.0000
  Pd  Pd7       1.0  0.008998870704176029  0.002169727709519941  0.9995131104160357  1.0000
  Pd  Pd8       1.0  0.0014988710902241454  0.004669727614357888  0.9992878733086883  1.0000
  Pd  Pd9       1.0  0.0012846156392261874  0.004625156087970745  0.9997234451855088  1.0000
  Pd  Pd10      1.0  0.008844974547640478  0.002221026400008892  0.9990580140639482  1.0000
  Pd  Pd11      1.0  0.0038449745060017866  0.007221026606193339  0.9995084889716506  1.0000
  Pd  Pd12      1.0  0.006344975114100146  0.009721026511031286  0.9992832515547883  1.0000
  Pd  Pd13      1.0  0.0032846344890103195  0.0002789736535197626  0.999575773906343  1.0000
  Pd  Pd14      1.0  0.0010044783723023307  0.00794017416787256  0.9997712113274291  1.0000
  Pd  Pd15      1.0  0.005851918631418115  0.002816680183484618  0.999346160450511  1.0000
  Pd  Pd16      1.0  0.00835191818213436  0.005316680088322565  0.9991209230551732  1.0000
