data_image0
_chemical_formula_structural       COAl2Ni2Al2Ni2Al2Ni2Al2Ni2Al2Ni2Al2Ni2Al2Ni2Al2Ni2
_chemical_formula_sum              "C1 O1 Al16 Ni16"
_cell_length_a       5.832512855529785
_cell_length_b       8.248418807983398
_cell_length_c       98.86946868896484
_cell_angle_alpha    90.0
_cell_angle_beta     90.0
_cell_angle_gamma    90.0

_space_group_name_H-M_alt    "P 1"
_space_group_IT_number       1

loop_
  _space_group_symop_operation_xyz
  'x, y, z'

loop_
  _atom_site_type_symbol
  _atom_site_label
  _atom_site_symmetry_multiplicity
  _atom_site_fract_x
  _atom_site_fract_y
  _atom_site_fract_z
  _atom_site_occupancy
  C   C1        1.0  0.0012499999616773381  0.0012500003025967229  0.00015878420272398707  1.0000
  O   O1        1.0  0.0012499999616773381  0.0012500003025967229  0.00028015599599012856  1.0000
  Al  Al1       1.0  0.0037499998850320146  0.003749999891607144  0.9995732345992008  1.0000
  Al  Al2       1.0  0.0037499998850320146  0.001249999963869048  0.9993646663546639  1.0000
  Ni  Ni1       1.0  0.0012499999616773381  0.003749999891607144  0.9993646663546639  1.0000
  Ni  Ni2       1.0  0.0012499999616773381  0.001249999963869048  0.9995732345992008  1.0000
  Al  Al3       1.0  0.0037499998850320146  0.003749999891607144  0.0  1.0000
  Al  Al4       1.0  0.0037499998850320146  0.001249999963869048  0.9997841570198137  1.0000
  Ni  Ni3       1.0  0.0012500002011939747  0.003749999665788694  0.9997791698439905  1.0000
  Ni  Ni4       1.0  0.0012499999616773381  0.0012500003025967229  0.999983598536664  1.0000
  Al  Al5       1.0  0.0037499998850320146  0.008749999747083336  0.9995732345992008  1.0000
  Al  Al6       1.0  0.0037499998850320146  0.00624999981934524  0.9993646663546639  1.0000
  Ni  Ni5       1.0  0.0012499999616773381  0.008749999747083336  0.9993646663546639  1.0000
  Ni  Ni6       1.0  0.0012499999616773381  0.00624999981934524  0.9995732345992008  1.0000
  Al  Al7       1.0  0.0037499998850320146  0.008749999747083336  0.0  1.0000
  Al  Al8       1.0  0.0037499998850320146  0.00624999981934524  0.9997841570198137  1.0000
  Ni  Ni7       1.0  0.0012500002011939747  0.008749999747083336  0.9997791698439905  1.0000
  Ni  Ni8       1.0  0.0012499999616773381  0.00625000027098214  0.999983598536664  1.0000
  Al  Al9       1.0  0.008750000051096883  0.003749999891607144  0.9995732345992008  1.0000
  Al  Al10      1.0  0.008750000051096883  0.001249999963869048  0.9993646663546639  1.0000
  Ni  Ni9       1.0  0.006250000127742206  0.003749999891607144  0.9993646663546639  1.0000
  Ni  Ni10      1.0  0.006250000127742206  0.001249999963869048  0.9995732345992008  1.0000
  Al  Al11      1.0  0.008750000051096883  0.003749999891607144  0.0  1.0000
  Al  Al12      1.0  0.008750000051096883  0.001249999963869048  0.9997841570198137  1.0000
  Ni  Ni11      1.0  0.006250000127742206  0.003749999665788694  0.9997791698439905  1.0000
  Ni  Ni12      1.0  0.006250000127742206  0.0012500003025967229  0.999983598536664  1.0000
  Al  Al13      1.0  0.008750000051096883  0.008749999747083336  0.9995732345992008  1.0000
  Al  Al14      1.0  0.008750000051096883  0.00624999981934524  0.9993646663546639  1.0000
  Ni  Ni13      1.0  0.006250000127742206  0.008749999747083336  0.9993646663546639  1.0000
  Ni  Ni14      1.0  0.006250000127742206  0.00624999981934524  0.9995732345992008  1.0000
  Al  Al15      1.0  0.008750000051096883  0.008749999747083336  0.0  1.0000
  Al  Al16      1.0  0.008750000051096883  0.00624999981934524  0.9997841570198137  1.0000
  Ni  Ni15      1.0  0.006250000127742206  0.008749999747083336  0.9997791698439905  1.0000
  Ni  Ni16      1.0  0.006250000127742206  0.00625000027098214  0.999983598536664  1.0000
