data_image0
_chemical_formula_structural       COGa15Ni25
_chemical_formula_sum              "C1 O1 Ga15 Ni25"
_cell_length_a       5.117512719182652
_cell_length_b       9.125608200495583
_cell_length_c       101.77680969238281
_cell_angle_alpha    87.12012690172045
_cell_angle_beta     85.69179684570206
_cell_angle_gamma    86.56935894930821

_space_group_name_H-M_alt    "P 1"
_space_group_IT_number       1

loop_
  _space_group_symop_operation_xyz
  'x, y, z'

loop_
  _atom_site_type_symbol
  _atom_site_label
  _atom_site_symmetry_multiplicity
  _atom_site_fract_x
  _atom_site_fract_y
  _atom_site_fract_z
  _atom_site_occupancy
  C   C1        1.0  0.006151131981111996  0.009541516941561384  8.384187031371427e-05  1.0000
  O   O1        1.0  0.006151131981111996  0.009541516941561384  0.0002017465752294982  1.0000
  Ga  Ga1       1.0  0.006769068304430077  0.008691304752174493  0.9997241380860774  1.0000
  Ga  Ga2       1.0  0.007454365044553584  0.0053436188709912215  0.9995205020294581  1.0000
  Ga  Ga3       1.0  0.006057699124851602  0.001954208448604241  0.9999475489699146  1.0000
  Ga  Ga4       1.0  0.008121031301890439  0.002010285562221242  0.9993123552270599  1.0000
  Ga  Ga5       1.0  0.00878769839286953  0.008676952384455818  0.9991042082335175  1.0000
  Ga  Ga6       1.0  0.0031660562990315135  0.0005529399295384144  0.9994943603769593  1.0000
  Ga  Ga7       1.0  0.003832723086747509  0.00721960613768914  0.9992862133873289  1.0000
  Ga  Ga8       1.0  0.0024986695039592183  0.003904894921639888  0.9997039726901744  1.0000
  Ga  Ga9       1.0  0.004499389688509438  0.0038862730336137775  0.9990780665827076  1.0000
  Ga  Ga10      1.0  0.0017860000446577164  0.007243249184653854  0.9999276343377528  1.0000
  Ga  Ga11      1.0  0.009582138308970863  0.0013121447901571668  0.9997155732287449  1.0000
  Ga  Ga12      1.0  0.0003102104511724285  0.007948279670461711  0.9995074314092632  1.0000
  Ga  Ga13      1.0  0.008979636754559981  0.004639151295378275  0.9999451830729916  1.0000
  Ga  Ga14      1.0  0.0009768771853478535  0.004614946156997116  0.9992992843131656  1.0000
  Ga  Ga15      1.0  0.0016435438179812675  0.0012816127458798283  0.9990911372169905  1.0000
  Ni  Ni1       1.0  0.0019287014430655267  0.00885603151649929  0.9997042849005934  1.0000
  Ni  Ni2       1.0  0.0025928460550726042  0.005531881012912543  0.9994969905733397  1.0000
  Ni  Ni3       1.0  0.0012636045456154534  0.0022364827339141345  0.9999075007594552  1.0000
  Ni  Ni4       1.0  0.0032595126568345342  0.0021985479088371795  0.9992888434758981  1.0000
  Ni  Ni5       1.0  0.003926179444550529  0.008865214116987905  0.9990806964862676  1.0000
  Ni  Ni6       1.0  0.008027575303948235  0.00036467763409613095  0.9995178721265313  1.0000
  Ni  Ni7       1.0  0.008694241670060445  0.007031344405157052  0.9993097251359575  1.0000
  Ni  Ni8       1.0  0.0073903492401732876  0.0037469808035358234  0.9997285348022279  1.0000
  Ni  Ni9       1.0  0.009360908677990418  0.0036980108916924563  0.9991015783316463  1.0000
  Ni  Ni10      1.0  0.006738715142335346  0.007083402339982391  0.9999208542488197  1.0000
  Ni  Ni11      1.0  0.004604800389210686  0.0012968928919470243  0.999714342163955  1.0000
  Ni  Ni12      1.0  0.005310210703026613  0.007948279670461711  0.9995074315474015  1.0000
  Ni  Ni13      1.0  0.004019233798795175  0.004594906554058296  0.9999188501535078  1.0000
  Ni  Ni14      1.0  0.005976876980944458  0.004614946156997116  0.9992992844530273  1.0000
  Ni  Ni15      1.0  0.006643543978583935  0.0012816127458798283  0.9990911373554735  1.0000
  Ni  Ni16      1.0  0.0038778028454270696  0.009622670169152032  0.9999152406868227  1.0000
  Ni  Ni17      1.0  0.004641450250332744  0.006292715345024599  0.9997164035267332  1.0000
  Ni  Ni18      1.0  0.006643544040689483  0.006281612709034798  0.9990911374081125  1.0000
  Ni  Ni19      1.0  0.005310210671792549  0.002948279400264818  0.9995074312032087  1.0000
  Ni  Ni20      1.0  0.005976877073921491  0.00961494581311016  0.9992992842141126  1.0000
  Ni  Ni21      1.0  0.0003102105111898806  0.002948279400264818  0.999507431357546  1.0000
  Ni  Ni22      1.0  0.0009768772783248863  0.00961494581311016  0.9992992843670712  1.0000
  Ni  Ni23      1.0  0.00968978990819468  0.006272404726413757  0.9997157064336838  1.0000
  Ni  Ni24      1.0  0.0016435438800868158  0.006281612709034798  0.9990911372696295  1.0000
  Ni  Ni25      1.0  0.00891627790654358  0.00963532193399823  0.9999107551258185  1.0000
