data_image0
_chemical_formula_structural       COV4Rh12V4Rh12
_chemical_formula_sum              "C1 O1 V8 Rh24"
_cell_length_a       6.951817224736754
_cell_length_b       5.439069430304461
_cell_length_c       111.71090698242188
_cell_angle_alpha    66.9709568146084
_cell_angle_beta     77.0391655248662
_cell_angle_gamma    66.97095644127054

_space_group_name_H-M_alt    "P 1"
_space_group_IT_number       1

loop_
  _space_group_symop_operation_xyz
  'x, y, z'

loop_
  _atom_site_type_symbol
  _atom_site_label
  _atom_site_symmetry_multiplicity
  _atom_site_fract_x
  _atom_site_fract_y
  _atom_site_fract_z
  _atom_site_occupancy
  C   C1        1.0  0.002271446669378788  0.0014430780007024095  0.9999747406490663  1.0000
  O   O1        1.0  0.002271446669378788  0.0014430780007024095  8.216046185098562e-05  1.0000
  V   V1        1.0  0.002083333304115947  0.0018694878704546688  0.9996241618743237  1.0000
  V   V2        1.0  0.007083333380081151  0.0018694879621851512  0.9993130100268224  1.0000
  V   V3        1.0  0.007916666409553668  0.008536154574503445  0.9996760207736843  1.0000
  V   V4        1.0  0.002916666771849257  0.008536154468132192  0.9993648685738092  1.0000
  Rh  Rh1       1.0  0.0004114748408643507  0.008556921827036667  0.999831273694579  1.0000
  Rh  Rh2       1.0  0.005411474807264356  0.008556921782885574  0.9995201213176336  1.0000
  Rh  Rh3       1.0  0.007927050268601741  0.0035257705221554323  0.9996766667980569  1.0000
  Rh  Rh4       1.0  0.002927050338723469  0.003525770921693199  0.9993655145926237  1.0000
  Rh  Rh5       1.0  0.0004114748408643507  0.0035257709396468817  0.9998312735539341  1.0000
  Rh  Rh6       1.0  0.005411474807264356  0.00352577089549579  0.9995201217105502  1.0000
  Rh  Rh7       1.0  0.009588524982370462  0.0018487207538030234  0.9994689089493116  1.0000
  Rh  Rh8       1.0  0.00458852505249219  0.00184872078122941  0.999780061326066  1.0000
  Rh  Rh9       1.0  0.002072949591154804  0.006879871669848173  0.9996235158527302  1.0000
  Rh  Rh10      1.0  0.007072949521033077  0.006879871642421785  0.9993123640095375  1.0000
  Rh  Rh11      1.0  0.009588524982370462  0.006879871641192809  0.9994689090899567  1.0000
  Rh  Rh12      1.0  0.00458852505249219  0.006879871668619194  0.9997800609331494  1.0000
  V   V5        1.0  0.002083333304115947  0.0018694878704546688  0.9990018578327854  1.0000
  V   V6        1.0  0.007083333380081151  0.0018694879621851512  0.9986907057185033  1.0000
  V   V7        1.0  0.007916666409553668  0.008536154574503445  0.9990537161985844  1.0000
  V   V8        1.0  0.002916666771849257  0.008536154468132192  0.9987425645322708  1.0000
  Rh  Rh13      1.0  0.0004114748408643507  0.008556921827036667  0.9992089696530407  1.0000
  Rh  Rh14      1.0  0.005411474807264356  0.008556921782885574  0.9988978172760952  1.0000
  Rh  Rh15      1.0  0.007927050268601741  0.0035257705221554323  0.9990543627565185  1.0000
  Rh  Rh16      1.0  0.002927050338723469  0.003525770921693199  0.9987432105510854  1.0000
  Rh  Rh17      1.0  0.0004114748408643507  0.0035257709396468817  0.9992089695123957  1.0000
  Rh  Rh18      1.0  0.005411474807264356  0.00352577089549579  0.9988978171354502  1.0000
  Rh  Rh19      1.0  0.009588524982370462  0.0018487207538030234  0.9988466049077733  1.0000
  Rh  Rh20      1.0  0.00458852505249219  0.00184872078122941  0.9991577567509661  1.0000
  Rh  Rh21      1.0  0.002072949591154804  0.006879871669848173  0.9990012118111918  1.0000
  Rh  Rh22      1.0  0.007072949521033077  0.006879871642421785  0.9986900594344376  1.0000
  Rh  Rh23      1.0  0.009588524982370462  0.006879871641192809  0.9988466050484183  1.0000
  Rh  Rh24      1.0  0.00458852505249219  0.006879871668619194  0.999157756891611  1.0000
