data_image0
_chemical_formula_structural       COGe8Se8Ge8Se8Ge8Se8Ge8Se8
_chemical_formula_sum              "C1 O1 Ge32 Se32"
_cell_length_a       7.8500542640686035
_cell_length_b       23.02026410588667
_cell_length_c       102.23568725585938
_cell_angle_alpha    101.53961469121973
_cell_angle_beta     90.0
_cell_angle_gamma    90.0

_space_group_name_H-M_alt    "P 1"
_space_group_IT_number       1

loop_
  _space_group_symop_operation_xyz
  'x, y, z'

loop_
  _atom_site_type_symbol
  _atom_site_label
  _atom_site_symmetry_multiplicity
  _atom_site_fract_x
  _atom_site_fract_y
  _atom_site_fract_z
  _atom_site_occupancy
  C   C1        1.0  0.001249999943053281  0.008937897405754515  0.00026750721752558196  1.0000
  O   O1        1.0  0.001249999943053281  0.008937897405754515  0.0003848832986259447  1.0000
  Ge  Ge1       1.0  0.0037500000664378395  0.0015892892193725007  0.99960168241282  1.0000
  Ge  Ge2       1.0  0.0037500000664378395  0.006589289173126269  0.9993764628698274  1.0000
  Ge  Ge3       1.0  0.0012500000616922791  0.0028393933857044328  0.9993132496766626  1.0000
  Ge  Ge4       1.0  0.0012500000616922791  0.007839393504623312  0.9995384693861722  1.0000
  Ge  Ge5       1.0  0.0012500000616922791  0.0003393933055993541  0.9993201625527044  1.0000
  Ge  Ge6       1.0  0.0012500000616922791  0.005339393610328983  0.9995453822705835  1.0000
  Ge  Ge7       1.0  0.0037500000664378395  0.0040892892788319405  0.9995947695358484  1.0000
  Ge  Ge8       1.0  0.0037500000664378395  0.00908928972808104  0.9993695500151747  1.0000
  Se  Se1       1.0  0.0037500000664378395  0.0029535237984267275  0.9994888114160544  1.0000
  Se  Se2       1.0  0.0037500000664378395  0.007953523917345606  0.9992635918805014  1.0000
  Se  Se3       1.0  0.0012500000616922791  0.001475158806650206  0.9994261206734283  1.0000
  Se  Se4       1.0  0.0012500000616922791  0.006475158760403975  0.9992009008389294  1.0000
  Se  Se5       1.0  0.0012500000616922791  0.003975158866109645  0.9993096102630623  1.0000
  Se  Se6       1.0  0.0012500000616922791  0.008975159315358746  0.9995348299874512  1.0000
  Se  Se7       1.0  0.0037500000664378395  0.00045352369767601006  0.9996053218245604  1.0000
  Se  Se8       1.0  0.0037500000664378395  0.005453524023051277  0.9993801020068009  1.0000
  Ge  Ge9       1.0  0.0037500000664378395  0.0014722375313396172  6.631538025024198e-05  1.0000
  Ge  Ge10      1.0  0.0037500000664378395  0.006806518951166348  0.9998143130355321  1.0000
  Ge  Ge11      1.0  0.0012500000616922791  0.0029087448943103966  0.9998239505982982  1.0000
  Ge  Ge12      1.0  0.0012500000616922791  0.008041371275693243  0.9999001875664717  1.0000
  Ge  Ge13      1.0  0.0012500000616922791  0.0003774336177240461  0.9997758393000953  1.0000
  Ge  Ge14      1.0  0.0012500000616922791  0.0054019568328906665  5.1991340356400274e-05  1.0000
  Ge  Ge15      1.0  0.0037500000664378395  0.004345239704732773  0.9999780095890908  1.0000
  Ge  Ge16      1.0  0.0037500000664378395  0.009660607076757876  0.999923124334149  1.0000
  Se  Se9       1.0  0.0037500000664378395  0.0032296032266825128  0.9999957880268656  1.0000
  Se  Se10      1.0  0.0037500000664378395  0.007953523917345606  0.999714031125564  1.0000
  Se  Se11      1.0  0.0012500000616922791  0.0014686807006835689  0.9998904918657626  1.0000
  Se  Se12      1.0  0.0012500000616922791  0.006475158760403975  0.9996513403754981  1.0000
  Se  Se13      1.0  0.0012500000616922791  0.003975158866109645  0.999760049799631  1.0000
  Se  Se14      1.0  0.0012500000616922791  0.009058912560945662  2.2421584675709104e-05  1.0000
  Se  Se15      1.0  0.0037499998291598427  0.0004754371025942455  0.00011589617285042713  1.0000
  Se  Se16      1.0  0.0037500000664378395  0.005598204035284384  0.9999041340456958  1.0000
  Ge  Ge17      1.0  0.00875000007592896  0.0015892892193725007  0.99960168241282  1.0000
  Ge  Ge18      1.0  0.00875000007592896  0.006589289173126269  0.9993764628698274  1.0000
  Ge  Ge19      1.0  0.006250000189822398  0.0028393933857044328  0.9993132496766626  1.0000
  Ge  Ge20      1.0  0.006250000189822398  0.007839393504623312  0.9995384693861722  1.0000
  Ge  Ge21      1.0  0.006250000189822398  0.0003393933055993541  0.9993201625527044  1.0000
  Ge  Ge22      1.0  0.006250000189822398  0.005339393610328983  0.9995453822705835  1.0000
  Ge  Ge23      1.0  0.00875000007592896  0.0040892892788319405  0.9995947695358484  1.0000
  Ge  Ge24      1.0  0.00875000007592896  0.00908928972808104  0.9993695500151747  1.0000
  Se  Se17      1.0  0.00875000007592896  0.0029535237984267275  0.9994888114160544  1.0000
  Se  Se18      1.0  0.00875000007592896  0.007953523917345606  0.9992635918805014  1.0000
  Se  Se19      1.0  0.006250000189822398  0.001475158806650206  0.9994261206734283  1.0000
  Se  Se20      1.0  0.006250000189822398  0.006475158760403975  0.9992009008389294  1.0000
  Se  Se21      1.0  0.006250000189822398  0.003975158866109645  0.9993096102630623  1.0000
  Se  Se22      1.0  0.006250000189822398  0.008975159315358746  0.9995348299874512  1.0000
  Se  Se23      1.0  0.00875000007592896  0.00045352369767601006  0.9996053218245604  1.0000
  Se  Se24      1.0  0.00875000007592896  0.005453524023051277  0.9993801020068009  1.0000
  Ge  Ge25      1.0  0.00875000007592896  0.0014722375313396172  6.631538025024198e-05  1.0000
  Ge  Ge26      1.0  0.00875000007592896  0.006806518951166348  0.9998143130355321  1.0000
  Ge  Ge27      1.0  0.006250000189822398  0.0029087448943103966  0.9998239505982982  1.0000
  Ge  Ge28      1.0  0.006250000189822398  0.008041371275693243  0.9999001875664717  1.0000
  Ge  Ge29      1.0  0.006250000189822398  0.0003774336177240461  0.9997758393000953  1.0000
  Ge  Ge30      1.0  0.006250000189822398  0.0054019568328906665  5.1991340356400274e-05  1.0000
  Ge  Ge31      1.0  0.00875000007592896  0.004345239704732773  0.9999780095890908  1.0000
  Ge  Ge32      1.0  0.00875000007592896  0.009660607076757876  0.999923124334149  1.0000
  Se  Se25      1.0  0.00875000007592896  0.0032296032266825128  0.9999957880268656  1.0000
  Se  Se26      1.0  0.00875000007592896  0.007953523917345606  0.999714031125564  1.0000
  Se  Se27      1.0  0.006250000189822398  0.0014686807006835689  0.9998904918657626  1.0000
  Se  Se28      1.0  0.006250000189822398  0.006475158760403975  0.9996513403754981  1.0000
  Se  Se29      1.0  0.006250000189822398  0.003975158866109645  0.999760049799631  1.0000
  Se  Se30      1.0  0.006250000189822398  0.009058912560945662  2.2421584675709104e-05  1.0000
  Se  Se31      1.0  0.00875000007592896  0.0004754371025942455  0.00011589617285042713  1.0000
  Se  Se32      1.0  0.00875000007592896  0.005598204035284384  0.9999041340456958  1.0000
