data_image0
_chemical_formula_structural       HOs6Ti18
_chemical_formula_sum              "H1 Os6 Ti18"
_cell_length_a       6.316628932952881
_cell_length_b       7.736258892491026
_cell_length_c       104.0160903930664
_cell_angle_alpha    94.34775300504904
_cell_angle_beta     90.0
_cell_angle_gamma    114.09484254425017

_space_group_name_H-M_alt    "P 1"
_space_group_IT_number       1

loop_
  _space_group_symop_operation_xyz
  'x, y, z'

loop_
  _atom_site_type_symbol
  _atom_site_label
  _atom_site_symmetry_multiplicity
  _atom_site_fract_x
  _atom_site_fract_y
  _atom_site_fract_z
  _atom_site_occupancy
  H   H1        1.0  0.0037272785170162173  0.00784431985025096  4.422940771443458e-05  1.0000
  Os  Os1       1.0  0.0053885328042102614  0.001167840483936973  0.9993905213484827  1.0000
  Os  Os2       1.0  0.0036250883879925984  0.007639939481623865  0.9999252041564152  1.0000
  Os  Os3       1.0  0.009555199352439014  0.00950117417015372  0.9996630437436289  1.0000
  Os  Os4       1.0  0.002471866057683064  0.005334507327045346  0.999526782689314  1.0000
  Os  Os5       1.0  0.0006769653762667807  0.0017478680689745356  3.608862554935291e-05  1.0000
  Os  Os6       1.0  0.006650493092432866  0.0036925389528238354  0.9998029528901228  1.0000
  Ti  Ti1       1.0  0.0014301993999113927  0.008251173958423673  0.9994586520850957  1.0000
  Ti  Ti2       1.0  0.009611467311051225  0.00473645304572827  0.9999996886571738  1.0000
  Ti  Ti3       1.0  0.005596865872346362  0.006584507009450275  0.9997311746313792  1.0000
  Ti  Ti4       1.0  0.0064301993468330616  0.008251173958423673  0.9994586520850957  1.0000
  Ti  Ti5       1.0  0.0047349509239756  0.004736085164770017  0.999999695178408  1.0000
  Ti  Ti6       1.0  0.0005968659254246938  0.006584507009450275  0.9997311746313792  1.0000
  Ti  Ti7       1.0  0.0003885326914188063  0.001167840483936973  0.9993905213484827  1.0000
  Ti  Ti8       1.0  0.008778347097235843  0.00795173420883426  0.9999665616200417  1.0000
  Ti  Ti9       1.0  0.004555199423947322  0.00950117417015372  0.9996630437436289  1.0000
  Ti  Ti10      1.0  0.008513532530045123  0.002417840431004461  0.9995949135785567  1.0000
  Ti  Ti11      1.0  0.004346865925278874  0.004084507115315298  0.9993223907442643  1.0000
  Ti  Ti12      1.0  0.0026400363405383077  0.0007341255740636789  0.999863133080691  1.0000
  Ti  Ti13      1.0  0.003513532583123455  0.002417840431004461  0.9995949135785567  1.0000
  Ti  Ti14      1.0  0.009346865872200542  0.004084507115315298  0.9993223907442643  1.0000
  Ti  Ti15      1.0  0.007703151084852042  0.0007346515247358287  0.9998630042486376  1.0000
  Ti  Ti16      1.0  0.007471865930884826  0.005334507327045346  0.999526782689314  1.0000
  Ti  Ti17      1.0  0.005056649156797421  0.0004988261011254046  7.270769903726206e-05  1.0000
  Ti  Ti18      1.0  0.001675882049380168  0.0037404232911352527  0.9998054393725065  1.0000
