data_image0
_chemical_formula_structural       COAg6Ca6Zn6
_chemical_formula_sum              "C1 O1 Ag6 Ca6 Zn6"
_cell_length_a       5.926471520159733
_cell_length_b       8.99963211516724
_cell_length_c       103.37590026855469
_cell_angle_alpha    83.9866315895991
_cell_angle_beta     92.51330450126689
_cell_angle_gamma    105.79934969806536

_space_group_name_H-M_alt    "P 1"
_space_group_IT_number       1

loop_
  _space_group_symop_operation_xyz
  'x, y, z'

loop_
  _atom_site_type_symbol
  _atom_site_label
  _atom_site_symmetry_multiplicity
  _atom_site_fract_x
  _atom_site_fract_y
  _atom_site_fract_z
  _atom_site_occupancy
  C   C1        1.0  0.008160101766153099  0.004454245728550474  0.00012599078159844024  1.0000
  O   O1        1.0  0.008160101766153099  0.004454245728550474  0.0002420716542474448  1.0000
  Ag  Ag1       1.0  0.007003087327687225  0.004012170349121479  0.9997362855252472  1.0000
  Ag  Ag2       1.0  0.005336420539078462  0.008178836670020338  0.9994672359367996  1.0000
  Ag  Ag3       1.0  0.003669754000421293  0.0023455036046570554  0.9991981864010412  1.0000
  Ag  Ag4       1.0  0.0038370418752268287  0.0018211629323466837  0.9995791464164092  1.0000
  Ag  Ag5       1.0  0.002170375203653743  0.005987829685455302  0.999310096824314  1.0000
  Ag  Ag6       1.0  0.005503708501895122  0.007654496213814846  0.9998481962387088  1.0000
  Ca  Ca1       1.0  0.00847161714200373  0.0007015688784651881  0.9996716985506595  1.0000
  Ca  Ca2       1.0  0.006804950708717524  0.004868235685600027  0.9994026486703799  1.0000
  Ca  Ca3       1.0  0.00013828358933397195  0.006534902213959571  0.9999407482076899  1.0000
  Ca  Ca4       1.0  0.004035178896802707  0.0009650978119730153  0.9999127835586086  1.0000
  Ca  Ca5       1.0  0.0023685119995831613  0.005131764348976754  0.9996437333913355  1.0000
  Ca  Ca6       1.0  0.0007018452690235028  0.009298431102085373  0.9993746840873827  1.0000
  Zn  Zn1       1.0  0.009861716527264142  0.002911245865930939  0.9999133324323471  1.0000
  Zn  Zn2       1.0  0.00819504998396403  0.007077912402934678  0.9996442828425454  1.0000
  Zn  Zn3       1.0  0.0065283829734142824  0.0012445793375713955  0.9993752333056005  1.0000
  Zn  Zn4       1.0  0.002645079468978094  0.008755420913110266  0.999671149330057  1.0000
  Zn  Zn5       1.0  0.0009784126756499122  0.002922087415537223  0.9994020995093094  1.0000
  Zn  Zn6       1.0  0.00431174616021337  0.004588754160001647  0.9999401989222017  1.0000
