data_image0
_chemical_formula_structural       CONb4Ge4Sb4Nb4Ge4Sb4
_chemical_formula_sum              "C1 O1 Nb8 Ge8 Sb8"
_cell_length_a       8.35189437866211
_cell_length_b       5.3383917808532715
_cell_length_c       102.03034973144531
_cell_angle_alpha    90.0
_cell_angle_beta     90.0
_cell_angle_gamma    90.0

_space_group_name_H-M_alt    "P 1"
_space_group_IT_number       1

loop_
  _space_group_symop_operation_xyz
  'x, y, z'

loop_
  _atom_site_type_symbol
  _atom_site_label
  _atom_site_symmetry_multiplicity
  _atom_site_fract_x
  _atom_site_fract_y
  _atom_site_fract_z
  _atom_site_occupancy
  C   C1        1.0  0.0024183840484020957  0.0075000207674228185  3.4130450160401434e-05  1.0000
  O   O1        1.0  0.0024183840484020957  0.0075000207674228185  0.00015174275228697852  1.0000
  Nb  Nb1       1.0  0.00245137817358782  0.0025000107605396456  0.9990876025301529  1.0000
  Nb  Nb2       1.0  0.00245137817358782  0.007500010997801869  0.9993492107014436  1.0000
  Nb  Nb3       1.0  0.007548622825544818  0.007500010997801869  0.9990876025301529  1.0000
  Nb  Nb4       1.0  0.007548622825544818  0.0025000107605396456  0.9993492107014436  1.0000
  Ge  Ge1       1.0  7.999999806116788e-10  0.00500001070471324  0.9992184066157982  1.0000
  Ge  Ge2       1.0  7.999999806116788e-10  1.0600000503656943e-08  0.9994800144949961  1.0000
  Ge  Ge3       1.0  7.999999806116788e-10  0.00500001070471324  0.9994800144949961  1.0000
  Ge  Ge4       1.0  7.999999806116788e-10  1.0600000503656943e-08  0.9992184066157982  1.0000
  Sb  Sb1       1.0  0.006140186580598146  0.0025000107605396456  0.9990876025301529  1.0000
  Sb  Sb2       1.0  0.006140186580598146  0.007500010997801869  0.9993492107014436  1.0000
  Sb  Sb3       1.0  0.0038598148645758493  0.007500010997801869  0.9990876025301529  1.0000
  Sb  Sb4       1.0  0.0038598148645758493  0.0025000107605396456  0.9993492107014436  1.0000
  Nb  Nb5       1.0  0.00245137817358782  0.0025000107605396456  0.9996108185806414  1.0000
  Nb  Nb6       1.0  0.0024183840484020957  0.0075000207674228185  0.9998643725872673  1.0000
  Nb  Nb7       1.0  0.007548622825544818  0.007500010997801869  0.9996108185806414  1.0000
  Nb  Nb8       1.0  0.0075815629797264  0.002500017041010256  0.9998643714188965  1.0000
  Ge  Ge5       1.0  7.700000245412129e-09  0.005000048038621869  0.9997409914539185  1.0000
  Ge  Ge6       1.0  0.009999999214967211  0.009999990007073429  0.0  1.0000
  Ge  Ge7       1.0  0.009999997430801787  0.005000029895040105  0.0  1.0000
  Ge  Ge8       1.0  9.499999949220108e-09  0.009999971863491665  0.9997409914539185  1.0000
  Sb  Sb5       1.0  0.006140186580598146  0.0025000107605396456  0.9996108185806414  1.0000
  Sb  Sb6       1.0  0.0062655754965460836  0.007500003321671123  0.9998831109194485  1.0000
  Sb  Sb7       1.0  0.0038598148645758493  0.007500010997801869  0.9996108185806414  1.0000
  Sb  Sb8       1.0  0.0037344696606808536  0.002500003258866417  0.9998831091668922  1.0000
