data_image0
_chemical_formula_structural       COSb12Os6
_chemical_formula_sum              "C1 O1 Sb12 Os6"
_cell_length_a       6.869960946355194
_cell_length_b       7.539383970793567
_cell_length_c       31.352563858032227
_cell_angle_alpha    119.13705563549004
_cell_angle_beta     112.89375178616673
_cell_angle_gamma    78.09236502380486

_space_group_name_H-M_alt    "P 1"
_space_group_IT_number       1

loop_
  _space_group_symop_operation_xyz
  'x, y, z'

loop_
  _atom_site_type_symbol
  _atom_site_label
  _atom_site_symmetry_multiplicity
  _atom_site_fract_x
  _atom_site_fract_y
  _atom_site_fract_z
  _atom_site_occupancy
  C   C1        1.0  0.007406877846198534  0.009125003856630957  0.0013170430657229964  1.0000
  O   O1        1.0  0.007406877846198534  0.009125003856630957  0.0016997871842541381  1.0000
  Sb  Sb1       1.0  0.004272230665024423  0.009828586650494648  0.9983095539620462  1.0000
  Sb  Sb2       1.0  0.007605563942061723  0.00316192022524463  0.999336781154988  1.0000
  Sb  Sb3       1.0  0.0009316720491671385  0.006465379259277714  0.0003753297811342259  1.0000
  Sb  Sb4       1.0  0.00908140550496447  0.003847572174766147  0.9986706777063759  1.0000
  Sb  Sb5       1.0  0.0024147387546070453  0.007180905387391156  0.999697904474361  1.0000
  Sb  Sb6       1.0  0.006303873689880451  0.0006655332196520442  0.0006667282291005875  1.0000
  Sb  Sb7       1.0  0.006697120650462378  0.008616141884511394  0.9994767575302684  1.0000
  Sb  Sb8       1.0  0.0001820334608583182  0.0021640079119236745  0.0005445274334345849  1.0000
  Sb  Sb9       1.0  0.003363787177142253  0.005282808671886384  0.9984495307337108  1.0000
  Sb  Sb10      1.0  0.00998984898046729  0.00839335071919468  0.9985307009999054  1.0000
  Sb  Sb11      1.0  0.003323182043111552  0.00172668386957946  0.9995579281153791  1.0000
  Sb  Sb12      1.0  0.006661439826460568  0.005210968735542161  0.0006234876473820821  1.0000
  Os  Os1       1.0  0.006676818232150729  0.006838079412630398  0.9984901159655744  1.0000
  Os  Os2       1.0  1.015124948421247e-05  0.00017141300506226268  0.9995173428913044  1.0000
  Os  Os3       1.0  0.003444903215659662  0.0033642340720960403  0.0004966984947241565  1.0000
  Os  Os4       1.0  0.006598253634391322  0.00679622625311174  2.858164807866221e-05  1.0000
  Os  Os5       1.0  1.015124948421247e-05  0.00017141300506226268  0.9979765025125621  1.0000
  Os  Os6       1.0  0.003343484758830605  0.0035047462000053885  0.9990037293101204  1.0000
