data_image0
_chemical_formula_structural       COFe6Re2Fe6Re2
_chemical_formula_sum              "C1 O1 Fe12 Re4"
_cell_length_a       5.094475269317627
_cell_length_b       5.094475151537987
_cell_length_c       98.41773986816406
_cell_angle_alpha    90.0
_cell_angle_beta     90.0
_cell_angle_gamma    120.00000076477342

_space_group_name_H-M_alt    "P 1"
_space_group_IT_number       1

loop_
  _space_group_symop_operation_xyz
  'x, y, z'

loop_
  _atom_site_type_symbol
  _atom_site_label
  _atom_site_symmetry_multiplicity
  _atom_site_fract_x
  _atom_site_fract_y
  _atom_site_fract_z
  _atom_site_occupancy
  C   C1        1.0  0.0012315621307269168  0.004162557734953044  0.00017356420850384618  1.0000
  O   O1        1.0  0.0012315621307269168  0.004162557734953044  0.0002954936933179636  1.0000
  Fe  Fe1       1.0  0.002019945150335068  0.0032515070608744494  0.9993832040331408  1.0000
  Fe  Fe2       1.0  0.007142684540215691  0.00837424651600283  0.9993832040331408  1.0000
  Fe  Fe3       1.0  0.0020199453069879784  0.00837424651600283  0.9993832040331408  1.0000
  Fe  Fe4       1.0  0.008768437769239471  0.006748492880020025  0.9995894513175  1.0000
  Fe  Fe5       1.0  0.00364569871341731  0.0016257536359828063  0.9995894513175  1.0000
  Fe  Fe6       1.0  0.008768437581024415  0.0016257536359828063  0.9995894513175  1.0000
  Re  Re1       1.0  0.0037275249124879037  0.006666666767990425  0.9995894513175  1.0000
  Re  Re2       1.0  0.007060858021227066  0.0033333333839952123  0.9993832040331408  1.0000
  Fe  Fe7       1.0  0.00203076941928425  0.0032729739767354163  0.99979962065575  1.0000
  Fe  Fe8       1.0  0.007121140444338944  0.00836349015468112  0.999799633071146  1.0000
  Fe  Fe9       1.0  0.0020307723076187223  0.008363615120649846  0.9997996164163464  1.0000
  Fe  Fe10      1.0  0.00873569563106594  0.006683049553181139  0.9999999969718546  1.0000
  Fe  Fe11      1.0  0.0037111661006470785  0.001658500630341856  0.9999999824367568  1.0000
  Fe  Fe12      1.0  0.008735672045647487  0.001658513084720496  0.0  1.0000
  Re  Re3       1.0  0.0037274519859497577  0.006666602174094427  0.9999951495167371  1.0000
  Re  Re4       1.0  0.007060769716669618  0.0033332759671987704  0.9998005627117764  1.0000
