data_image0
_chemical_formula_structural       HAl4Mn4Rh8Al4Mn4Rh8Al4Mn4Rh8Al4Mn4Rh8
_chemical_formula_sum              "H1 Al16 Mn16 Rh32"
_cell_length_a       8.485725402832031
_cell_length_b       8.485725402832031
_cell_length_c       106.00188446044922
_cell_angle_alpha    90.0
_cell_angle_beta     90.0
_cell_angle_gamma    90.0

_space_group_name_H-M_alt    "P 1"
_space_group_IT_number       1

loop_
  _space_group_symop_operation_xyz
  'x, y, z'

loop_
  _atom_site_type_symbol
  _atom_site_label
  _atom_site_symmetry_multiplicity
  _atom_site_fract_x
  _atom_site_fract_y
  _atom_site_fract_z
  _atom_site_occupancy
  H   H1        1.0  0.0024999982790937397  0.002500012107804761  0.0001162095597996787  1.0000
  Al  Al1       1.0  1.2500000208627323e-09  1.300000034257324e-09  0.9995844595486977  1.0000
  Al  Al2       1.0  0.0025000022301540316  0.0024999938890267488  0.9998699764658955  1.0000
  Al  Al3       1.0  1.2500000208627323e-09  1.300000034257324e-09  0.9990184020513637  1.0000
  Al  Al4       1.0  0.0025000013521406335  0.0025000013521406335  0.9993014308000308  1.0000
  Mn  Mn1       1.0  0.009999999262468745  0.009999999262468745  0.9998854767718216  1.0000
  Mn  Mn2       1.0  0.0025000013521406335  0.0025000013521406335  0.9995844595486977  1.0000
  Mn  Mn3       1.0  1.2500000208627323e-09  1.300000034257324e-09  0.9993014308000308  1.0000
  Mn  Mn4       1.0  0.0025000013521406335  0.0025000013521406335  0.9990184020513637  1.0000
  Rh  Rh1       1.0  0.009999998384455347  0.002499996303563594  0.0  1.0000
  Rh  Rh2       1.0  0.0024999982790937397  1.1900000675896343e-08  0.9999999803195709  1.0000
  Rh  Rh3       1.0  0.0025000013521406335  1.300000034257324e-09  0.9997259736418822  1.0000
  Rh  Rh4       1.0  1.2500000208627323e-09  0.0025000013521406335  0.9997259736418822  1.0000
  Rh  Rh5       1.0  1.2500000208627323e-09  0.0025000013521406335  0.9994429448932152  1.0000
  Rh  Rh6       1.0  0.0025000013521406335  1.300000034257324e-09  0.9994429448932152  1.0000
  Rh  Rh7       1.0  0.0025000013521406335  1.300000034257324e-09  0.9991599164256972  1.0000
  Rh  Rh8       1.0  1.2500000208627323e-09  0.0025000013521406335  0.9991599164256972  1.0000
  Al  Al5       1.0  1.2500000208627323e-09  0.00500000138726117  0.9995844595486977  1.0000
  Al  Al6       1.0  0.0025000022301540316  0.007499993959267821  0.9998699764658955  1.0000
  Al  Al7       1.0  1.2500000208627323e-09  0.00500000138726117  0.9990184020513637  1.0000
  Al  Al8       1.0  0.0025000013521406335  0.007500001861388404  0.9993014308000308  1.0000
  Mn  Mn5       1.0  0.009999999262468745  0.004999998753220975  0.9998854767718216  1.0000
  Mn  Mn6       1.0  0.0025000013521406335  0.007500001861388404  0.9995844595486977  1.0000
  Mn  Mn7       1.0  1.2500000208627323e-09  0.00500000138726117  0.9993014308000308  1.0000
  Mn  Mn8       1.0  0.0025000013521406335  0.007500001861388404  0.9990184020513637  1.0000
  Rh  Rh9       1.0  0.009999998384455347  0.007499996593308016  0.0  1.0000
  Rh  Rh10      1.0  0.0024999982790937397  0.005000011923421948  0.9999999803195709  1.0000
  Rh  Rh11      1.0  0.0025000013521406335  0.00500000138726117  0.9997259736418822  1.0000
  Rh  Rh12      1.0  1.2500000208627323e-09  0.007500001861388404  0.9997259736418822  1.0000
  Rh  Rh13      1.0  1.2500000208627323e-09  0.007500001861388404  0.9994429448932152  1.0000
  Rh  Rh14      1.0  0.0025000013521406335  0.00500000138726117  0.9994429448932152  1.0000
  Rh  Rh15      1.0  0.0025000013521406335  0.00500000138726117  0.9991599164256972  1.0000
  Rh  Rh16      1.0  1.2500000208627323e-09  0.007500001861388404  0.9991599164256972  1.0000
  Al  Al9       1.0  0.00500000138726117  1.300000034257324e-09  0.9995844595486977  1.0000
  Al  Al10      1.0  0.007500002739401802  0.0024999938890267488  0.9998699764658955  1.0000
  Al  Al11      1.0  0.00500000138726117  1.300000034257324e-09  0.9990184020513637  1.0000
  Al  Al12      1.0  0.007500001861388404  0.0025000013521406335  0.9993014308000308  1.0000
  Mn  Mn9       1.0  0.004999998753220975  0.009999999262468745  0.9998854767718216  1.0000
  Mn  Mn10      1.0  0.007500001861388404  0.0025000013521406335  0.9995844595486977  1.0000
  Mn  Mn11      1.0  0.00500000138726117  1.300000034257324e-09  0.9993014308000308  1.0000
  Mn  Mn12      1.0  0.007500001861388404  0.0025000013521406335  0.9990184020513637  1.0000
  Rh  Rh17      1.0  0.0049999978752075765  0.002499996303563594  0.0  1.0000
  Rh  Rh18      1.0  0.007499998349334812  1.1900000675896343e-08  0.9999999803195709  1.0000
  Rh  Rh19      1.0  0.007500001861388404  1.300000034257324e-09  0.9997259736418822  1.0000
  Rh  Rh20      1.0  0.00500000138726117  0.0025000013521406335  0.9997259736418822  1.0000
  Rh  Rh21      1.0  0.00500000138726117  0.0025000013521406335  0.9994429448932152  1.0000
  Rh  Rh22      1.0  0.007500001861388404  1.300000034257324e-09  0.9994429448932152  1.0000
  Rh  Rh23      1.0  0.007500001861388404  1.300000034257324e-09  0.9991599164256972  1.0000
  Rh  Rh24      1.0  0.00500000138726117  0.0025000013521406335  0.9991599164256972  1.0000
  Al  Al13      1.0  0.00500000138726117  0.00500000138726117  0.9995844595486977  1.0000
  Al  Al14      1.0  0.007500002739401802  0.007499993959267821  0.9998699764658955  1.0000
  Al  Al15      1.0  0.00500000138726117  0.00500000138726117  0.9990184020513637  1.0000
  Al  Al16      1.0  0.007500001861388404  0.007500001861388404  0.9993014308000308  1.0000
  Mn  Mn13      1.0  0.004999998753220975  0.004999998753220975  0.9998854767718216  1.0000
  Mn  Mn14      1.0  0.007500001861388404  0.007500001861388404  0.9995844595486977  1.0000
  Mn  Mn15      1.0  0.00500000138726117  0.00500000138726117  0.9993014308000308  1.0000
  Mn  Mn16      1.0  0.007500001861388404  0.007500001861388404  0.9990184020513637  1.0000
  Rh  Rh25      1.0  0.0049999978752075765  0.007499996593308016  0.0  1.0000
  Rh  Rh26      1.0  0.007499998349334812  0.005000011923421948  0.9999999803195709  1.0000
  Rh  Rh27      1.0  0.007500001861388404  0.00500000138726117  0.9997259736418822  1.0000
  Rh  Rh28      1.0  0.00500000138726117  0.007500001861388404  0.9997259736418822  1.0000
  Rh  Rh29      1.0  0.00500000138726117  0.007500001861388404  0.9994429448932152  1.0000
  Rh  Rh30      1.0  0.007500001861388404  0.00500000138726117  0.9994429448932152  1.0000
  Rh  Rh31      1.0  0.007500001861388404  0.00500000138726117  0.9991599164256972  1.0000
  Rh  Rh32      1.0  0.00500000138726117  0.007500001861388404  0.9991599164256972  1.0000
