data_image0
_chemical_formula_structural       COPd12Pb24
_chemical_formula_sum              "C1 O1 Pd12 Pb24"
_cell_length_a       10.04022216796875
_cell_length_b       9.275384564102358
_cell_length_c       105.04171752929688
_cell_angle_alpha    97.83716569391211
_cell_angle_beta     90.0
_cell_angle_gamma    57.232629372679426

_space_group_name_H-M_alt    "P 1"
_space_group_IT_number       1

loop_
  _space_group_symop_operation_xyz
  'x, y, z'

loop_
  _atom_site_type_symbol
  _atom_site_label
  _atom_site_symmetry_multiplicity
  _atom_site_fract_x
  _atom_site_fract_y
  _atom_site_fract_z
  _atom_site_occupancy
  C   C1        1.0  0.009328612722237452  0.0005140908159013003  7.867905688984202e-05  1.0000
  O   O1        1.0  0.009328612722237452  0.0005140908159013003  0.00019291904645116483  1.0000
  Pd  Pd1       1.0  0.007359597831638513  0.005014686350728378  0.9997736681337182  1.0000
  Pd  Pd2       1.0  0.0006713869148258934  0.008397383957449123  0.9994098144045362  1.0000
  Pd  Pd3       1.0  0.004004720059382679  0.0017307176683355522  0.999039149734767  1.0000
  Pd  Pd4       1.0  0.005430332710792263  0.008454151485547129  0.9999437652207439  1.0000
  Pd  Pd5       1.0  0.009004719658663108  0.0017307176683355522  0.9995951466043804  1.0000
  Pd  Pd6       1.0  0.0023380534265989815  0.005064050933902946  0.9992244822129681  1.0000
  Pd  Pd7       1.0  0.004004720059382679  0.0017307176683355522  0.9995951466043804  1.0000
  Pd  Pd8       1.0  0.00733805302587941  0.005064050933902946  0.9992244822129681  1.0000
  Pd  Pd9       1.0  0.0008493851650625764  0.008456669474267655  0.999943855687477  1.0000
  Pd  Pd10      1.0  0.005671386514106322  0.008397383957449123  0.9994098144045362  1.0000
  Pd  Pd11      1.0  0.009004719658663108  0.0017307176683355522  0.999039149734767  1.0000
  Pd  Pd12      1.0  0.0023681982370672757  0.005013866866894497  0.9997738023957771  1.0000
  Pb  Pb1       1.0  0.008172790743371846  0.0018416120310550473  0.9998792951357643  1.0000
  Pb  Pb2       1.0  0.0014708409899684778  0.005064050933902946  0.9995024807896343  1.0000
  Pb  Pb3       1.0  0.0048041744485124585  0.008397383957449123  0.9991318158278701  1.0000
  Pb  Pb4       1.0  0.0009604577480665863  0.002819242691687308  0.9997521020929636  1.0000
  Pb  Pb5       1.0  0.004293790779071031  0.006152576199275916  0.9993814371370275  1.0000
  Pb  Pb6       1.0  0.007627124237615011  0.009485909222822095  0.9990107727427011  1.0000
  Pb  Pb7       1.0  0.008021086588809513  0.005431679223269427  4.373241924960319e-05  1.0000
  Pb  Pb8       1.0  0.0015385993514563973  0.008397383957449123  0.9996878129812025  1.0000
  Pb  Pb9       1.0  0.004871932496013183  0.0017307176683355522  0.9993171483114331  1.0000
  Pb  Pb10      1.0  0.008653414253009948  0.007432501038251651  0.9998278621789845  1.0000
  Pb  Pb11      1.0  0.0020489827714183424  0.0006421926449837963  0.9994381916832351  1.0000
  Pb  Pb12      1.0  0.005382315923433394  0.00397552591055119  0.9990675270081039  1.0000
  Pb  Pb13      1.0  0.0048041744485124585  0.008397383957449123  0.9996878129812025  1.0000
  Pb  Pb14      1.0  0.008137507593069243  0.0017307176683355522  0.9993171483114331  1.0000
  Pb  Pb15      1.0  0.0012880207905268794  0.005429351463223866  4.363346168221024e-05  1.0000
  Pb  Pb16      1.0  0.004328312154010574  0.006077202080171182  0.99995633769106  1.0000
  Pb  Pb17      1.0  0.007627124237615011  0.009485909222822095  0.9995667693285957  1.0000
  Pb  Pb18      1.0  0.0009604577480665863  0.002819242691687308  0.9991961049396313  1.0000
  Pb  Pb19      1.0  0.008205265833546554  0.005064050933902946  0.9995024807896343  1.0000
  Pb  Pb20      1.0  0.0015385993514563973  0.008397383957449123  0.9991318158278701  1.0000
  Pb  Pb21      1.0  0.004726216348466308  0.0018408755604979  0.9998790870974703  1.0000
  Pb  Pb22      1.0  0.005382315923433394  0.00397552591055119  0.9996235238777174  1.0000
  Pb  Pb23      1.0  0.008715649260966768  0.007308859176118583  0.9992528592025861  1.0000
  Pb  Pb24      1.0  0.0020321421963418003  0.0006749499139031794  8.12686294555328e-06  1.0000
