data_image0
_chemical_formula_structural       HV18Si6
_chemical_formula_sum              "H1 V18 Si6"
_cell_length_a       6.66420841217041
_cell_length_b       6.664208384220102
_cell_length_c       102.64781951904297
_cell_angle_alpha    90.0
_cell_angle_beta     90.0
_cell_angle_gamma    59.999999861260534

_space_group_name_H-M_alt    "P 1"
_space_group_IT_number       1

loop_
  _space_group_symop_operation_xyz
  'x, y, z'

loop_
  _atom_site_type_symbol
  _atom_site_label
  _atom_site_symmetry_multiplicity
  _atom_site_fract_x
  _atom_site_fract_y
  _atom_site_fract_z
  _atom_site_occupancy
  H   H1        1.0  0.001754267700314874  0.0007651190885078781  0.00014987707420440597  1.0000
  V   V1        1.0  0.004166675073547168  0.009583333841108748  0.9997444018407188  1.0000
  V   V2        1.0  0.007500008688738889  0.002916666610725307  0.9994793547073956  1.0000
  V   V3        1.0  0.0006965430770348404  0.006211599010876901  0.0  1.0000
  V   V4        1.0  0.0024892703203969694  0.007792834245456336  0.999880091953252  1.0000
  V   V5        1.0  0.005833341765892312  0.0012499999644987527  0.9996118781288893  1.0000
  V   V6        1.0  0.009166674850874164  0.004583333660375126  0.9993468309955661  1.0000
  V   V7        1.0  0.009166675369539827  0.007083333428003326  0.9997444018407188  1.0000
  V   V8        1.0  0.0025000080383380053  0.00041666668172780187  0.9994793547073956  1.0000
  V   V9        1.0  0.005794589990525669  0.003925197338394811  0.9999999918706015  1.0000
  V   V10       1.0  0.007375755334338724  0.0005516631597200648  0.9998800820818395  1.0000
  V   V11       1.0  0.0008333413921114509  0.0037499999741809112  0.9996118781288893  1.0000
  V   V12       1.0  0.004166674877620118  0.007083333428003326  0.9993468309955661  1.0000
  V   V13       1.0  0.00013492754845919618  0.002906012363687604  0.9998800832431822  1.0000
  V   V14       1.0  0.003333341554498521  0.0062500003872863336  0.9996118781288893  1.0000
  V   V15       1.0  0.006666674760507353  0.009583333841108748  0.9993468309955661  1.0000
  V   V16       1.0  0.006666675163913979  0.004583333660375126  0.9997444018407188  1.0000
  V   V17       1.0  7.945083063277273e-09  0.00791666711419754  0.9994793547073956  1.0000
  V   V18       1.0  0.003508543476451455  0.0011134592629358593  0.9999999947739582  1.0000
  Si  Si1       1.0  0.006666674564580303  0.007083333428003326  0.9995456165633103  1.0000
  Si  Si2       1.0  0.009999992049347043  0.0004167789544222233  5.9705205713731455e-05  1.0000
  Si  Si3       1.0  0.003333714930563407  0.003749392580114361  0.9998075870096487  1.0000
  Si  Si4       1.0  0.006666782941001337  0.0070833469830250025  0.9999311927713574  1.0000
  Si  Si5       1.0  8.089346725476918e-09  0.00041666668172780187  0.9996781402751397  1.0000
  Si  Si6       1.0  0.0033333413585714703  0.0037499999741809112  0.9994130928514808  1.0000
