data_image0
_chemical_formula_structural       Fe9Co3Fe9Co3Fe9Co3Fe9Co3H
_chemical_formula_sum              "Fe36 Co12 H1"
_cell_length_a       5.542688846588135
_cell_length_b       8.793815097706263
_cell_length_c       36.629817962646484
_cell_angle_alpha    108.43494882292202
_cell_angle_beta     90.0
_cell_angle_gamma    90.0

_space_group_name_H-M_alt    "P 1"
_space_group_IT_number       1

loop_
  _space_group_symop_operation_xyz
  'x, y, z'

loop_
  _atom_site_type_symbol
  _atom_site_label
  _atom_site_symmetry_multiplicity
  _atom_site_fract_x
  _atom_site_fract_y
  _atom_site_fract_z
  _atom_site_occupancy
  Fe  Fe1       1.0  2.2854999531353613e-07  0.007747862267945755  0.999852130699328  1.0000
  Fe  Fe2       1.0  7.877499842419037e-07  0.004428869766065566  0.0003362292401235595  1.0000
  Fe  Fe3       1.0  7.574999986469608e-08  0.0005582190912146356  0.999227337641097  1.0000
  Fe  Fe4       1.0  0.0025004440824890283  0.009441780593973817  0.00033872064421128716  1.0000
  Fe  Fe5       1.0  0.0025000757668321226  0.005558219352441239  0.9992273376283843  1.0000
  Fe  Fe6       1.0  0.0025000436736339155  0.0027219470438858123  0.9998432264858004  1.0000
  Fe  Fe7       1.0  0.00249993260764431  0.005667780022486815  0.9999494548920677  1.0000
  Fe  Fe8       1.0  0.002499873630091585  0.0024016564360147753  0.00043552861946130644  1.0000
  Fe  Fe9       1.0  0.0025000757668321226  0.00889155252501974  0.9994803963406278  1.0000
  Co  Co1       1.0  2.962499901291362e-07  0.007407997526490396  0.00045234073235409097  1.0000
  Co  Co2       1.0  7.574999986469608e-08  0.0038915525428813874  0.9994803963745282  1.0000
  Co  Co3       1.0  0.009999923997929776  0.0006727474763134542  0.9999473192127655  1.0000
  Fe  Fe10      1.0  7.574999986469608e-08  0.007224885715459888  0.9982151026099086  1.0000
  Fe  Fe11      1.0  7.574999986469608e-08  0.0038915525428813874  0.9987212201360967  1.0000
  Fe  Fe12      1.0  7.574999986469608e-08  0.0005582190912146356  0.9977089851642339  1.0000
  Fe  Fe13      1.0  0.0025000757668321226  0.00889155252501974  0.9987212201021963  1.0000
  Fe  Fe14      1.0  0.0025000757668321226  0.005558219352441239  0.9977089851515213  1.0000
  Fe  Fe15      1.0  0.0025000757668321226  0.002224885733321536  0.998215102643809  1.0000
  Fe  Fe16      1.0  0.0025000757668321226  0.005558219352441239  0.9984681613899529  1.0000
  Fe  Fe17      1.0  0.0025000757668321226  0.002224885733321536  0.9989742788822406  1.0000
  Fe  Fe18      1.0  0.0025000757668321226  0.00889155252501974  0.9979620438637647  1.0000
  Co  Co4       1.0  7.574999986469608e-08  0.007224885715459888  0.9989742788483401  1.0000
  Co  Co5       1.0  7.574999986469608e-08  0.0038915525428813874  0.9979620438976651  1.0000
  Co  Co6       1.0  7.574999986469608e-08  0.0005582190912146356  0.9984681614026655  1.0000
  Fe  Fe19      1.0  0.005000228490129054  0.007747862267945755  0.999852130699328  1.0000
  Fe  Fe20      1.0  0.005000787684703043  0.004428869766065566  0.0003362292401235595  1.0000
  Fe  Fe21      1.0  0.005000075585362729  0.0005582190912146356  0.999227337641097  1.0000
  Fe  Fe22      1.0  0.0075004438875774584  0.009441780593973817  0.00033872064421128716  1.0000
  Fe  Fe23      1.0  0.007500075571920553  0.005558219352441239  0.9992273376283843  1.0000
  Fe  Fe24      1.0  0.00750004331069513  0.0027219470438858123  0.9998432264858004  1.0000
  Fe  Fe25      1.0  0.00749993241273274  0.005667780022486815  0.9999494548920677  1.0000
  Fe  Fe26      1.0  0.007499873267152799  0.0024016564360147753  0.00043552861946130644  1.0000
  Fe  Fe27      1.0  0.007500075571920553  0.00889155252501974  0.9994803963406278  1.0000
  Co  Co7       1.0  0.005000296037069783  0.007407997526490396  0.00045234073235409097  1.0000
  Co  Co8       1.0  0.005000075585362729  0.0038915525428813874  0.9994803963745282  1.0000
  Co  Co9       1.0  0.00499992402481413  0.0006727474763134542  0.9999473192127655  1.0000
  Fe  Fe28      1.0  0.005000075585362729  0.007224885715459888  0.9982151026099086  1.0000
  Fe  Fe29      1.0  0.005000075585362729  0.0038915525428813874  0.9987212201360967  1.0000
  Fe  Fe30      1.0  0.005000075585362729  0.0005582190912146356  0.9977089851642339  1.0000
  Fe  Fe31      1.0  0.007500075571920553  0.00889155252501974  0.9987212201021963  1.0000
  Fe  Fe32      1.0  0.007500075571920553  0.005558219352441239  0.9977089851515213  1.0000
  Fe  Fe33      1.0  0.007500075571920553  0.002224885733321536  0.998215102643809  1.0000
  Fe  Fe34      1.0  0.007500075571920553  0.005558219352441239  0.9984681613899529  1.0000
  Fe  Fe35      1.0  0.007500075571920553  0.002224885733321536  0.9989742788822406  1.0000
  Fe  Fe36      1.0  0.007500075571920553  0.00889155252501974  0.9979620438637647  1.0000
  Co  Co10      1.0  0.005000075585362729  0.007224885715459888  0.9989742788483401  1.0000
  Co  Co11      1.0  0.005000075585362729  0.0038915525428813874  0.9979620438976651  1.0000
  Co  Co12      1.0  0.005000075585362729  0.0005582190912146356  0.9984681614026655  1.0000
  H   H1        1.0  0.003750075760111034  0.0030582191381014617  0.9996368400892304  1.0000
