data_image0
_chemical_formula_structural       HPt6V3Pt6V3
_chemical_formula_sum              "H1 Pt12 V6"
_cell_length_a       4.841608260446714
_cell_length_b       7.672976970672607
_cell_length_c       98.77214813232422
_cell_angle_alpha    90.0
_cell_angle_beta     89.1459216181284
_cell_angle_gamma    113.34082377990902

_space_group_name_H-M_alt    "P 1"
_space_group_IT_number       1

loop_
  _space_group_symop_operation_xyz
  'x, y, z'

loop_
  _atom_site_type_symbol
  _atom_site_label
  _atom_site_symmetry_multiplicity
  _atom_site_fract_x
  _atom_site_fract_y
  _atom_site_fract_z
  _atom_site_occupancy
  H   H1        1.0  0.0027577806915894056  0.004439445163187196  0.9999979850053935  1.0000
  Pt  Pt1       1.0  0.004732995866703556  0.0036832491220383907  0.999918202348409  1.0000
  Pt  Pt2       1.0  0.008903367061065925  0.0022258417844647125  3.110151164891948e-06  1.0000
  Pt  Pt3       1.0  0.002914814184907065  0.0032287034588353593  0.9996533859051155  1.0000
  Pt  Pt4       1.0  0.007085185169738905  0.001771296287817754  0.9997382940097524  1.0000
  Pt  Pt5       1.0  0.0010966323983453083  0.00277415801219492  0.9993885694618986  1.0000
  Pt  Pt6       1.0  0.005267003697472942  0.0013167508709360566  0.9994734772645778  1.0000
  V   V1        1.0  0.0009090908408982459  0.00022727273463216374  0.9998282481464092  1.0000
  V   V2        1.0  0.009090908618512989  0.00477272706723684  0.9995634317683822  1.0000
  V   V3        1.0  0.007272726727185967  0.004318181594405085  0.9992986150235138  1.0000
  Pt  Pt7       1.0  0.004732995866703556  0.008683248947255577  0.999918202348409  1.0000
  Pt  Pt8       1.0  0.008903367061065925  0.0072258420759914845  3.110151164891948e-06  1.0000
  Pt  Pt9       1.0  0.002914814184907065  0.008228703526806455  0.9996533859051155  1.0000
  Pt  Pt10      1.0  0.007085185169738905  0.006771296117651913  0.9997382940097524  1.0000
  Pt  Pt11      1.0  0.0010966323983453083  0.007774158080166015  0.9993885694618986  1.0000
  Pt  Pt12      1.0  0.005267003697472942  0.006316750749585423  0.9994734772645778  1.0000
  V   V4        1.0  0.0009090908408982459  0.005227273020949565  0.9998282481464092  1.0000
  V   V5        1.0  0.009090908618512989  0.009772727135207935  0.9995634317683822  1.0000
  V   V6        1.0  0.007272726727185967  0.009318181662376178  0.9992986150235138  1.0000
