data_image0
_chemical_formula_structural       CORe12Pd4Re12Pd4
_chemical_formula_sum              "C1 O1 Re24 Pd8"
_cell_length_a       7.134724815623988
_cell_length_b       5.58128646784451
_cell_length_c       112.808349609375
_cell_angle_alpha    66.97483427182671
_cell_angle_beta     77.06208193760453
_cell_angle_gamma    66.97483579097619

_space_group_name_H-M_alt    "P 1"
_space_group_IT_number       1

loop_
  _space_group_symop_operation_xyz
  'x, y, z'

loop_
  _atom_site_type_symbol
  _atom_site_label
  _atom_site_symmetry_multiplicity
  _atom_site_fract_x
  _atom_site_fract_y
  _atom_site_fract_z
  _atom_site_occupancy
  C   C1        1.0  0.009384926290277682  0.005430738328698037  0.9999490145455909  1.0000
  O   O1        1.0  0.009384926290277682  0.005430738328698037  5.538986585979702e-05  1.0000
  Re  Re1       1.0  0.009548541842476155  0.006597084001533304  0.9994616971803735  1.0000
  Re  Re2       1.0  0.00454854189940928  0.006597083888421242  0.9997779293451817  1.0000
  Re  Re3       1.0  0.0021529161442483155  0.006597083828171835  0.9996264146746576  1.0000
  Re  Re4       1.0  0.007152916087315191  0.00659708466652222  0.9993101824958147  1.0000
  Re  Re5       1.0  0.009548541842476155  0.0018058325676501156  0.9994616972219227  1.0000
  Re  Re6       1.0  0.00454854189940928  0.001805832454538052  0.9997779293867309  1.0000
  Re  Re7       1.0  0.0004514580792407982  0.003402916295417254  0.9998350356726596  1.0000
  Re  Re8       1.0  0.005451458271390094  0.003402916294414158  0.9995188035065325  1.0000
  Re  Re9       1.0  0.007847083457219814  0.003402916615498216  0.9996703181800711  1.0000
  Re  Re10      1.0  0.0028470837988185606  0.0034029163719688266  0.9993540861961672  1.0000
  Re  Re11      1.0  0.0004514580792407982  0.008194167729300443  0.9998350356311104  1.0000
  Re  Re12      1.0  0.005451458271390094  0.008194167728297348  0.9995188034649833  1.0000
  Pd  Pd1       1.0  0.007916666552800418  0.008333333656255904  0.9996747190234674  1.0000
  Pd  Pd2       1.0  0.0029166666097335424  0.008333333543143839  0.9993584870410707  1.0000
  Pd  Pd3       1.0  0.002083333191000522  0.0016666669035150655  0.999622013826999  1.0000
  Pd  Pd4       1.0  0.007083332991734586  0.0016666669005262114  0.999305781666453  1.0000
  Re  Re13      1.0  0.009548541842476155  0.006597084001533304  0.9988292330331684  1.0000
  Re  Re14      1.0  0.00454854189940928  0.006597083888421242  0.9991454651979768  1.0000
  Re  Re15      1.0  0.0021529161442483155  0.006597083828171835  0.9989939505274525  1.0000
  Re  Re16      1.0  0.007152916087315191  0.00659708466652222  0.9986777183486096  1.0000
  Re  Re17      1.0  0.009548541842476155  0.0018058325676501156  0.9988292330747176  1.0000
  Re  Re18      1.0  0.00454854189940928  0.001805832454538052  0.999145465239526  1.0000
  Re  Re19      1.0  0.0004514580792407982  0.003402916295417254  0.9992025715254546  1.0000
  Re  Re20      1.0  0.005451458271390094  0.003402916294414158  0.9988863393593275  1.0000
  Re  Re21      1.0  0.007847083457219814  0.003402916615498216  0.999037854032866  1.0000
  Re  Re22      1.0  0.0028470837988185606  0.0034029163719688266  0.9987216220489621  1.0000
  Re  Re23      1.0  0.0004514580792407982  0.008194167729300443  0.9992025714839053  1.0000
  Re  Re24      1.0  0.005451458271390094  0.008194167728297348  0.9988863393177783  1.0000
  Pd  Pd5       1.0  0.007916666552800418  0.008333333656255904  0.9990422548762624  1.0000
  Pd  Pd6       1.0  0.0029166666097335424  0.008333333543143839  0.9987260228938656  1.0000
  Pd  Pd7       1.0  0.002083333191000522  0.0016666669035150655  0.998989549679794  1.0000
  Pd  Pd8       1.0  0.007083332991734586  0.0016666669005262114  0.9986733175192479  1.0000
