data_image0
_chemical_formula_structural       COHf12
_chemical_formula_sum              "C1 O1 Hf12"
_cell_length_a       5.565560817718506
_cell_length_b       6.026728419959883
_cell_length_c       102.13278198242188
_cell_angle_alpha    105.4611908745474
_cell_angle_beta     90.0
_cell_angle_gamma    62.50056892280762

_space_group_name_H-M_alt    "P 1"
_space_group_IT_number       1

loop_
  _space_group_symop_operation_xyz
  'x, y, z'

loop_
  _atom_site_type_symbol
  _atom_site_label
  _atom_site_symmetry_multiplicity
  _atom_site_fract_x
  _atom_site_fract_y
  _atom_site_fract_z
  _atom_site_occupancy
  C   C1        1.0  0.0017886063008982155  0.0036789076000794192  0.00024464241662993925  1.0000
  O   O1        1.0  0.0017886063008982155  0.0036789076000794192  0.0003621367615970664  1.0000
  Hf  Hf1       1.0  0.008211393116564575  0.00750000023380529  0.9994887460726215  1.0000
  Hf  Hf2       1.0  0.003211393303981678  0.00750000023380529  0.9993314371079087  1.0000
  Hf  Hf3       1.0  0.007378060178783274  0.0025000001388218907  0.9994100916471309  1.0000
  Hf  Hf4       1.0  0.00237806003152698  0.0025000001388218907  0.9992527826824182  1.0000
  Hf  Hf5       1.0  0.008211393116564575  0.00750000023380529  0.9998033637102471  1.0000
  Hf  Hf6       1.0  0.003211393303981678  0.00750000023380529  0.9996460550373342  1.0000
  Hf  Hf7       1.0  0.007378060178783274  0.0025000001388218907  0.9997247092847565  1.0000
  Hf  Hf8       1.0  0.00237806003152698  0.0025000001388218907  0.9995674006118436  1.0000
  Hf  Hf9       1.0  0.008211393116564575  0.00750000023380529  0.0001179816396725686  1.0000
  Hf  Hf10      1.0  0.003211393303981678  0.00750000023380529  0.9999606723831601  1.0000
  Hf  Hf11      1.0  0.007378060178783274  0.0025000001388218907  3.9327214181992676e-05  1.0000
  Hf  Hf12      1.0  0.00237806003152698  0.0025000001388218907  0.9998820179576695  1.0000
