data_image0
_chemical_formula_structural       COSb24Ir12
_chemical_formula_sum              "C1 O1 Sb24 Ir12"
_cell_length_a       6.7257605858584375
_cell_length_b       15.197480261599354
_cell_length_c       108.18330383300781
_cell_angle_alpha    70.37777058915522
_cell_angle_beta     107.54467875891667
_cell_angle_gamma    112.25269793930384

_space_group_name_H-M_alt    "P 1"
_space_group_IT_number       1

loop_
  _space_group_symop_operation_xyz
  'x, y, z'

loop_
  _atom_site_type_symbol
  _atom_site_label
  _atom_site_symmetry_multiplicity
  _atom_site_fract_x
  _atom_site_fract_y
  _atom_site_fract_z
  _atom_site_occupancy
  C   C1        1.0  0.005294405341438912  0.007760775890299344  0.9998007970305401  1.0000
  O   O1        1.0  0.005294405341438912  0.007760775890299344  0.9999117195508264  1.0000
  Sb  Sb1       1.0  0.008514796919439387  0.005853772425816649  0.9989545133533559  1.0000
  Sb  Sb2       1.0  0.008447250132943642  0.002499073150273119  0.9995454134194511  1.0000
  Sb  Sb3       1.0  0.008514796602828043  0.009187105277572948  0.999248638003369  1.0000
  Sb  Sb4       1.0  0.0017005036173527433  0.008615303691583918  0.9996254403652493  1.0000
  Sb  Sb5       1.0  0.001496253599132028  0.005046032022386082  0.9993244277849679  1.0000
  Sb  Sb6       1.0  0.0014962532987807266  0.001712698486571496  0.999030302604703  1.0000
  Sb  Sb7       1.0  0.0014962535686513679  0.007479561170195068  0.9993361583360818  1.0000
  Sb  Sb8       1.0  0.0014962533626472778  0.004146227771192139  0.9990420331511309  1.0000
  Sb  Sb9       1.0  0.0013898592980725155  0.0007664210254948283  0.9996295207871659  1.0000
  Sb  Sb10      1.0  0.008610140985706187  0.004978344728496675  0.9995620354805721  1.0000
  Sb  Sb11      1.0  0.008514796716524348  0.0016206349124314333  0.9992603687766306  1.0000
  Sb  Sb12      1.0  0.008514796743732133  0.008287301573625633  0.9989662433507883  1.0000
  Sb  Sb13      1.0  0.006625266810974606  0.006578550240182606  0.999454214918763  1.0000
  Sb  Sb14      1.0  0.00655946445240804  0.0031958119626957476  0.9991589850283181  1.0000
  Sb  Sb15      1.0  0.0065594647918029245  0.009862478760701605  0.9988648601528323  1.0000
  Sb  Sb16      1.0  0.0040766075954541065  0.004408597232732276  0.999692771564081  1.0000
  Sb  Sb17      1.0  0.0034515854602361696  0.0010538258574452825  0.9994111687140254  1.0000
  Sb  Sb18      1.0  0.003451585487443955  0.007720492518639484  0.9991170438391428  1.0000
  Sb  Sb19      1.0  0.0034515856844520316  0.00680418823431304  0.998837561473447  1.0000
  Sb  Sb20      1.0  0.0034515855510612366  0.0034708548353101112  0.9994258115338838  1.0000
  Sb  Sb21      1.0  0.0034515854685498253  0.00013752129949552442  0.9991316863577014  1.0000
  Sb  Sb22      1.0  0.0066434448131102355  0.009010040894295909  0.9994686996496928  1.0000
  Sb  Sb23      1.0  0.006559464710193614  0.005612841077372233  0.9991736272938917  1.0000
  Sb  Sb24      1.0  0.006559464845522092  0.0022795075415576464  0.998879502121792  1.0000
  Ir  Ir1       1.0  0.007752885977738641  0.007545353349005777  0.9996292014554272  1.0000
  Ir  Ir2       1.0  0.007288599909688615  0.0040264932184672295  0.9993544268682067  1.0000
  Ir  Ir3       1.0  0.007288599997843487  0.0006931596142468139  0.9990603019739299  1.0000
  Ir  Ir4       1.0  0.002722450258150328  0.009300295581476426  0.9993785869127372  1.0000
  Ir  Ir5       1.0  0.0027224503425994227  0.0059669621824734965  0.9990844617332298  1.0000
  Ir  Ir6       1.0  0.0024551259336041244  0.002638212794864365  0.9996532829447182  1.0000
  Ir  Ir7       1.0  0.002733073221441354  0.0058752562340059515  0.9995193455759833  1.0000
  Ir  Ir8       1.0  0.002722450355088379  0.002640173853161944  0.9992303691350244  1.0000
  Ir  Ir9       1.0  0.0027224504766433745  0.009306840651167802  0.9989362442554559  1.0000
  Ir  Ir10      1.0  0.007288599939487242  0.0040330380145352914  0.9989120844957772  1.0000
  Ir  Ir11      1.0  0.007307283896129058  0.0007677647895940905  0.9994878831306425  1.0000
  Ir  Ir12      1.0  0.007288600145491332  0.00736637141353822  0.9992062094052482  1.0000
