data_image0
_chemical_formula_structural       COCu12Se12Cu12Se12
_chemical_formula_sum              "C1 O1 Cu24 Se24"
_cell_length_a       7.102268218994141
_cell_length_b       18.16863067499278
_cell_length_c       102.56930541992188
_cell_angle_alpha    102.94857901351088
_cell_angle_beta     90.0
_cell_angle_gamma    90.0

_space_group_name_H-M_alt    "P 1"
_space_group_IT_number       1

loop_
  _space_group_symop_operation_xyz
  'x, y, z'

loop_
  _atom_site_type_symbol
  _atom_site_label
  _atom_site_symmetry_multiplicity
  _atom_site_fract_x
  _atom_site_fract_y
  _atom_site_fract_z
  _atom_site_occupancy
  C   C1        1.0  0.009934720146703461  0.0075949235294193685  0.00030145639460302644  1.0000
  O   O1        1.0  0.009934720146703461  0.0075949235294193685  0.0004184506968415626  1.0000
  Cu  Cu1       1.0  0.0065921573521994905  0.0010452131404150582  0.999744648106673  1.0000
  Cu  Cu2       1.0  0.008402355568511835  0.008886946033845022  0.9994605232640145  1.0000
  Cu  Cu3       1.0  0.008402355568511835  0.006045213363427995  0.9997446480690355  1.0000
  Cu  Cu4       1.0  0.0065921573521994905  0.003886945916026867  0.9994605233058274  1.0000
  Cu  Cu5       1.0  0.006333264174862513  0.007466080119415635  0.9996025856832265  1.0000
  Cu  Cu6       1.0  0.008661248745848813  0.0024660795808183534  0.9996025857083378  1.0000
  Cu  Cu7       1.0  0.0015921573731803394  0.0010452131404150582  0.9995461889226852  1.0000
  Cu  Cu8       1.0  0.0034023555894926835  0.008886946033845022  0.9996589824480022  1.0000
  Cu  Cu9       1.0  0.0034023555894926835  0.006045213363427995  0.9995461888850478  1.0000
  Cu  Cu10      1.0  0.0015921573731803394  0.003886945916026867  0.999658982489815  1.0000
  Cu  Cu11      1.0  0.0013332640647130598  0.007466080119415635  0.9994041264992388  1.0000
  Cu  Cu12      1.0  0.003661248766829661  0.0024660795808183534  0.9994041265243502  1.0000
  Se  Se1       1.0  0.008017106281457844  0.007466080119415635  0.9994041264992388  1.0000
  Se  Se2       1.0  0.006977407163774689  0.0024660795808183534  0.9994041265243502  1.0000
  Se  Se3       1.0  0.005065279790353993  0.00566180110674201  0.9997294297358819  1.0000
  Se  Se4       1.0  0.009929232605836126  0.0006618009889238546  0.9997294297776946  1.0000
  Se  Se5       1.0  0.005065279790353993  0.009270358290531007  0.9994757415971681  1.0000
  Se  Se6       1.0  0.009929232605836126  0.004270358172712852  0.999475741638981  1.0000
  Se  Se7       1.0  0.0030171060401780895  0.007466080119415635  0.9996025856832265  1.0000
  Se  Se8       1.0  0.0019774069224949334  0.0024660795808183534  0.9996025857083378  1.0000
  Se  Se9       1.0  6.527990148692363e-05  0.00566180110674201  0.9995309705518941  1.0000
  Se  Se10      1.0  0.0049292331513381814  0.0006618009889238546  0.999530970593707  1.0000
  Se  Se11      1.0  6.527990148692363e-05  0.009270358290531007  0.9996742007811559  1.0000
  Se  Se12      1.0  0.0049292331513381814  0.004270358172712852  0.9996742008229687  1.0000
  Cu  Cu13      1.0  0.008102564423624878  0.0010296081257404367  0.9999704317244021  1.0000
  Cu  Cu14      1.0  0.008541894994244868  0.008911136625810832  0.9998669003289246  1.0000
  Cu  Cu15      1.0  0.006891813695136256  0.00603020711744997  0.9999702465418556  1.0000
  Cu  Cu16      1.0  0.006453441424761402  0.003910439697759672  0.9998667373130826  1.0000
  Cu  Cu17      1.0  0.005352145159137552  0.007425045739027643  0.9999329080271305  1.0000
  Cu  Cu18      1.0  0.009642235582229618  0.0024249867121318176  0.9999329620989678  1.0000
  Cu  Cu19      1.0  0.0016557707806406322  0.0011529439577612085  0.999944169462704  1.0000
  Cu  Cu20      1.0  0.002890424727312754  0.008695922409244742  0.9999777474544056  1.0000
  Cu  Cu21      1.0  0.0033375827279043804  0.006153313624846958  0.9999439539671171  1.0000
  Cu  Cu22      1.0  0.002104713333508677  0.0036955326499557165  0.9999778130962915  1.0000
  Cu  Cu23      1.0  0.0013332640647130598  0.007466080119415635  0.9998010448672142  1.0000
  Cu  Cu24      1.0  0.003661248766829661  0.0024660795808183534  0.9998010448923256  1.0000
  Se  Se13      1.0  0.008017106281457844  0.007466080119415635  0.9998010448672142  1.0000
  Se  Se14      1.0  0.006977407163774689  0.0024660795808183534  0.9998010448923256  1.0000
  Se  Se15      1.0  0.004810424901789488  0.0057089430961469395  0.00012807659163785302  1.0000
  Se  Se16      1.0  0.000183310605715789  0.0007093136847389753  0.00012839933884372428  1.0000
  Se  Se17      1.0  0.005173437112273923  0.009277447577249392  0.9998653580811551  1.0000
  Se  Se18      1.0  0.00982004932043536  0.004277772300916671  0.9998655348911779  1.0000
  Se  Se19      1.0  0.0023970370011022835  0.007490558524303772  3.105221428557971e-05  1.0000
  Se  Se20      1.0  0.002597356895256757  0.002490427754566928  3.107757886491727e-05  1.0000
  Se  Se21      1.0  9.206890422087922e-05  0.005652787176300341  0.9999236068654472  1.0000
  Se  Se22      1.0  0.004902590621151273  0.0006529409584475968  0.9999235180033964  1.0000
  Se  Se23      1.0  7.787720438009951e-05  0.00934705959277306  7.678672074526475e-05  1.0000
  Se  Se24      1.0  0.004917540000071167  0.004346816264619954  7.665420310209913e-05  1.0000
