data_image0
_chemical_formula_structural       HMn12Se24
_chemical_formula_sum              "H1 Mn12 Se24"
_cell_length_a       13.214632226438646
_cell_length_b       5.909763336181641
_cell_length_c       103.43067169189453
_cell_angle_alpha    90.0
_cell_angle_beta     108.43494816913297
_cell_angle_gamma    90.0

_space_group_name_H-M_alt    "P 1"
_space_group_IT_number       1

loop_
  _space_group_symop_operation_xyz
  'x, y, z'

loop_
  _atom_site_type_symbol
  _atom_site_label
  _atom_site_symmetry_multiplicity
  _atom_site_fract_x
  _atom_site_fract_y
  _atom_site_fract_z
  _atom_site_occupancy
  H   H1        1.0  0.0009069090261361059  0.008557407612933438  0.000177694600576851  1.0000
  Mn  Mn1       1.0  0.007937229835721406  1.8579200023076166e-05  0.9997473557276728  1.0000
  Mn  Mn2       1.0  0.004571009157315287  0.009891290818612918  8.351257049919712e-06  1.0000
  Mn  Mn3       1.0  0.001270563256220354  1.8579200023076166e-05  0.9994780072928449  1.0000
  Mn  Mn4       1.0  0.009571614843443455  0.0051464062542360325  8.364755841083064e-06  1.0000
  Mn  Mn5       1.0  0.006270563042268389  0.005018579239469949  0.9994780072611497  1.0000
  Mn  Mn6       1.0  0.0029372300496733708  0.005018579239469949  0.999747355759368  1.0000
  Mn  Mn7       1.0  0.007854905279566185  4.5453897621478726e-05  0.00011501671753741058  1.0000
  Mn  Mn8       1.0  0.004603896843126388  1.8579200023076166e-05  0.9996126815222646  1.0000
  Mn  Mn9       1.0  0.001294418306064886  0.009981420609243168  0.9998898503299506  1.0000
  Mn  Mn10      1.0  0.0062941601611322655  0.005056082627287538  0.9998898433349171  1.0000
  Mn  Mn11      1.0  0.002855876894872715  0.004991858824204803  0.00011538389726291058  1.0000
  Mn  Mn12      1.0  0.009603896629174422  0.005018579239469949  0.9996126814905694  1.0000
  Se  Se1       1.0  0.007999395956547478  0.006347072849959237  5.6755831709623496e-05  1.0000
  Se  Se2       1.0  0.004603896843126388  0.006330269289844042  0.9995066910563641  1.0000
  Se  Se3       1.0  0.001270563256220354  0.006330269289844042  0.9997760395305709  1.0000
  Se  Se4       1.0  0.006210452048933344  0.0014011341647273705  0.9999886034302924  1.0000
  Se  Se5       1.0  0.0029372300496733708  0.0013302693402730038  0.999449323521642  1.0000
  Se  Se6       1.0  0.009603896629174422  0.0013302693402730038  0.9997186719564699  1.0000
  Se  Se7       1.0  0.00039610331436603204  0.0037068891890958545  0.9994426771298842  1.0000
  Se  Se8       1.0  0.007062770116733714  0.0037068891890958545  0.9997120255737164  1.0000
  Se  Se9       1.0  0.003796541969502203  0.0036779120778329456  0.9999814948977626  1.0000
  Se  Se10      1.0  0.007145023355567095  0.008706889138666893  0.9995133374391175  1.0000
  Se  Se11      1.0  0.0038116900658165696  0.008706889138666893  0.9997826859253302  1.0000
  Se  Se12      1.0  0.00047000670630058684  0.008557407612933438  4.951757283885523e-05  1.0000
  Se  Se13      1.0  0.007937229835721406  0.0037068891890958545  0.9994493234899468  1.0000
  Se  Se14      1.0  0.004603896843126388  0.0037068891890958545  0.9997186719881651  1.0000
  Se  Se15      1.0  0.0012118393105062246  0.003636896312892579  0.9999887465195755  1.0000
  Se  Se16      1.0  0.009603896629174422  0.008706889138666893  0.9995066910246689  1.0000
  Se  Se17      1.0  0.006270563042268389  0.008706889138666893  0.9997760394988757  1.0000
  Se  Se18      1.0  0.00299895073439345  0.00868839746908745  5.673210401389087e-05  1.0000
  Se  Se19      1.0  0.005469892384633678  0.006479952531420873  4.9591880786517316e-05  1.0000
  Se  Se20      1.0  0.002145023420941307  0.006330269289844042  0.9995133374648099  1.0000
  Se  Se21      1.0  0.008811690149020113  0.006330269289844042  0.9997826859056407  1.0000
  Se  Se22      1.0  0.008797093870483485  0.0013595625780842028  0.9999814926810189  1.0000
  Se  Se23      1.0  0.0053961033232806975  0.0013302693402730038  0.9994426771071934  1.0000
  Se  Se24      1.0  0.002062769884952418  0.0013302693402730038  0.999712025587403  1.0000
