data_image0
_chemical_formula_structural       COSi20Rh20
_chemical_formula_sum              "C1 O1 Si20 Rh20"
_cell_length_a       10.323509137168623
_cell_length_b       5.574304191889638
_cell_length_c       109.34294891357422
_cell_angle_alpha    100.88487648447338
_cell_angle_beta     95.65438912185972
_cell_angle_gamma    79.62883857366522

_space_group_name_H-M_alt    "P 1"
_space_group_IT_number       1

loop_
  _space_group_symop_operation_xyz
  'x, y, z'

loop_
  _atom_site_type_symbol
  _atom_site_label
  _atom_site_symmetry_multiplicity
  _atom_site_fract_x
  _atom_site_fract_y
  _atom_site_fract_z
  _atom_site_occupancy
  C   C1        1.0  0.00996025670569765  0.009777662385706317  0.00019024288288217148  1.0000
  O   O1        1.0  0.00996025670569765  0.009777662385706317  0.0002999895509382892  1.0000
  Si  Si1       1.0  0.0059455032850073055  0.0026566851813366156  0.9997904906706415  1.0000
  Si  Si2       1.0  0.00994550313738049  0.0006566852765592712  0.9996105844525496  1.0000
  Si  Si3       1.0  0.003945503218186218  0.00865668541318308  0.9994306782805905  1.0000
  Si  Si4       1.0  0.00794550308574229  0.006656685335900926  0.9992507720609791  1.0000
  Si  Si5       1.0  0.0019466591472929605  0.00457701805180872  0.9999764917193081  1.0000
  Si  Si6       1.0  0.007863138555623315  0.0076518138386814935  0.9996857194927184  1.0000
  Si  Si7       1.0  0.001863138313037338  0.00565181410640896  0.9995058135261575  1.0000
  Si  Si8       1.0  0.005863138724522555  0.0036518140291268053  0.999325907311606  1.0000
  Si  Si9       1.0  0.009866081904992859  0.001496428690861045  3.908129931931873e-05  1.0000
  Si  Si10      1.0  0.003843211185801117  0.009631157499884297  0.9998655914470721  1.0000
  Si  Si11      1.0  0.006039743736645602  0.0010635114798887985  0.9995428466595707  1.0000
  Si  Si12      1.0  3.9743681690277755e-05  0.009063511098998176  0.9993629407539248  1.0000
  Si  Si13      1.0  0.004042840162024758  0.007024576685890345  6.902504598198578e-05  1.0000
  Si  Si14      1.0  0.008053317715329635  0.005041025977358713  0.9999158286081058  1.0000
  Si  Si15      1.0  0.002039743687779815  0.0030635115571709536  0.9997227528774955  1.0000
  Si  Si16      1.0  0.00412210862329447  0.0060683825189354525  0.9996476179014478  1.0000
  Si  Si17      1.0  0.008122108853469973  0.004068382441653298  0.9994677116852096  1.0000
  Si  Si18      1.0  0.002122108444757168  0.002068382536875953  0.9992878054428843  1.0000
  Si  Si19      1.0  0.006089976716509808  0.000222337591005534  5.859839586998727e-06  1.0000
  Si  Si20      1.0  0.00012703233968108237  0.008050221289723469  0.9998278317238692  1.0000
  Rh  Rh1       1.0  0.004055939456310305  0.003235826612803507  0.999447477993378  1.0000
  Rh  Rh2       1.0  0.008055939686485807  0.0012358265355213516  0.9992675717771398  1.0000
  Rh  Rh3       1.0  0.0020574865994518994  0.009190225542891685  0.9999847374172061  1.0000
  Rh  Rh4       1.0  0.0060559396196647195  0.007235826767367818  0.9998072901809026  1.0000
  Rh  Rh5       1.0  5.59393924828645e-05  0.0052358263450760405  0.9996273842078421  1.0000
  Rh  Rh6       1.0  0.00777999211380293  0.0030590281571350243  0.999667692785218  1.0000
  Rh  Rh7       1.0  0.0017799915389632988  0.001059028079852869  0.9994877862671284  1.0000
  Rh  Rh8       1.0  0.005779992077347619  0.009059028043971868  0.99930788011957  1.0000
  Rh  Rh9       1.0  0.009826026395398256  0.006937365153679319  1.8067356163537978e-05  1.0000
  Rh  Rh10      1.0  0.00375725497908959  0.0050297672783689105  0.9998419250153056  1.0000
  Rh  Rh11      1.0  0.00793784553699843  0.00045511689821633224  0.9998878883058048  1.0000
  Rh  Rh12      1.0  0.001929307449655727  0.008484370357550529  0.9997059534372662  1.0000
  Rh  Rh13      1.0  0.005929307861140945  0.006484370280268373  0.9995260472227147  1.0000
  Rh  Rh14      1.0  0.009929307728697018  0.004484370202986218  0.9993461410031033  1.0000
  Rh  Rh15      1.0  0.003944209890302146  0.002381168260044384  5.961377422877427e-05  1.0000
  Rh  Rh16      1.0  0.004205255255286519  0.0006611686765952008  0.9996656450950033  1.0000
  Rh  Rh17      1.0  0.00820525526492458  0.008661168468209388  0.9994857389408655  1.0000
  Rh  Rh18      1.0  0.0022052552340140947  0.006661168390927234  0.999305832700394  1.0000
  Rh  Rh19      1.0  0.006127813243538175  0.004643935773052958  1.011722112445814e-05  1.0000
  Rh  Rh20      1.0  0.00020760267624778814  0.002582723743652706  0.9998386445255902  1.0000
