data_image0
_chemical_formula_structural       COIn20Pt10
_chemical_formula_sum              "C1 O1 In20 Pt10"
_cell_length_a       13.850033174159321
_cell_length_b       4.616677761077881
_cell_length_c       102.96967315673828
_cell_angle_alpha    90.0
_cell_angle_beta     81.95053300362049
_cell_angle_gamma    90.0

_space_group_name_H-M_alt    "P 1"
_space_group_IT_number       1

loop_
  _space_group_symop_operation_xyz
  'x, y, z'

loop_
  _atom_site_type_symbol
  _atom_site_label
  _atom_site_symmetry_multiplicity
  _atom_site_fract_x
  _atom_site_fract_y
  _atom_site_fract_z
  _atom_site_occupancy
  C   C1        1.0  0.0016564752661420486  0.00875  0.9999688009515855  1.0000
  O   O1        1.0  0.0016564752661420486  0.00875  8.534035538087316e-05  1.0000
  In  In1       1.0  0.0017499999467566387  0.00125  0.9993453176770202  1.0000
  In  In2       1.0  0.007083333796948997  0.00125  0.9995587761928205  1.0000
  In  In3       1.0  0.00641666660726591  0.00125  0.9991318588158642  1.0000
  In  In4       1.0  0.0024166667289650216  0.00125  0.9997722353510793  1.0000
  In  In5       1.0  0.001083333368285608  0.00125  0.9989183999991237  1.0000
  In  In6       1.0  0.009416666515991576  0.00125  0.9994520466290404  1.0000
  In  In7       1.0  0.004749999991307207  0.00125  0.9996655057770664  1.0000
  In  In8       1.0  0.004083333344923725  0.00125  0.999238588100449  1.0000
  In  In9       1.0  8.333335626510417e-05  0.00125  0.9998789643483145  1.0000
  In  In10      1.0  0.0087500004129077  0.00125  0.9990251292316185  1.0000
  In  In11      1.0  0.009750000382482922  0.00625  0.9996655057465444  1.0000
  In  In12      1.0  0.0050833333144989475  0.00625  0.9998789643259468  1.0000
  In  In13      1.0  0.004416666668115466  0.00625  0.9994520466493295  1.0000
  In  In14      1.0  0.0037500000217319846  0.00625  0.9990251292621404  1.0000
  In  In15      1.0  0.00908333373609944  0.00625  0.9992385880699272  1.0000
  In  In16      1.0  0.0020833334057732806  0.00625  0.9995587762233424  1.0000
  In  In17      1.0  0.007416666576841133  0.00625  0.9997722353307902  1.0000
  In  In18      1.0  0.006749999930457651  0.00625  0.9993453176541729  1.0000
  In  In19      1.0  0.006083333284074169  0.00625  0.9989183999775556  1.0000
  In  In20      1.0  0.001416666623564898  0.00625  0.9991318585492833  1.0000
  Pt  Pt1       1.0  0.002583333390560892  0.00125  0.9990784940491468  1.0000
  Pt  Pt2       1.0  0.007916666833278546  0.00125  0.9992919525726218  1.0000
  Pt  Pt3       1.0  0.0039166666833278544  0.00125  0.9999323294023814  1.0000
  Pt  Pt4       1.0  0.003250000036944373  0.00125  0.9995054117257641  1.0000
  Pt  Pt5       1.0  0.008583333479662027  0.00125  0.9997188702492391  1.0000
  Pt  Pt6       1.0  0.0005833333834979969  0.00625  0.9993986821733194  1.0000
  Pt  Pt7       1.0  0.0059166668941281015  0.00625  0.9996121412743716  1.0000
  Pt  Pt8       1.0  0.00525000024774462  0.00625  0.9991852233083262  1.0000
  Pt  Pt9       1.0  0.0012499999619690278  0.00625  0.9998255998512158  1.0000
  Pt  Pt10      1.0  0.009916667315728595  0.00625  0.9989717644394955  1.0000
