data_image0
_chemical_formula_structural       Al4Au8Al4Au8H
_chemical_formula_sum              "Al8 Au16 H1"
_cell_length_a       6.588493824005127
_cell_length_b       6.904236316680908
_cell_length_c       33.489219665527344
_cell_angle_alpha    90.0
_cell_angle_beta     90.0
_cell_angle_gamma    90.0

_space_group_name_H-M_alt    "P 1"
_space_group_IT_number       1

loop_
  _space_group_symop_operation_xyz
  'x, y, z'

loop_
  _atom_site_type_symbol
  _atom_site_label
  _atom_site_symmetry_multiplicity
  _atom_site_fract_x
  _atom_site_fract_y
  _atom_site_fract_z
  _atom_site_occupancy
  Al  Al1       1.0  0.0037499999773830534  0.008961368477701823  0.9985591545085784  1.0000
  Al  Al2       1.0  0.001249999898223741  0.0010386315276938356  0.9997896640297105  1.0000
  Al  Al3       1.0  0.0012500003222914867  0.006111740885204347  0.9998874386597137  1.0000
  Al  Al4       1.0  0.0037499999773830534  0.003961368542449728  0.9987201935837381  1.0000
  Au  Au1       1.0  0.0037499999773830534  0.0037271753707534094  0.9995520946517757  1.0000
  Au  Au2       1.0  0.0037499999773830534  0.008677959344427982  0.00014783684595895795  1.0000
  Au  Au3       1.0  0.0012500000395796562  0.0011212804745941998  0.9990052626877236  1.0000
  Au  Au4       1.0  0.0012500000395796562  0.006121280409846295  0.9982740849596389  1.0000
  Au  Au5       1.0  0.0037499999773830534  0.00875504658119667  0.9977481240064355  1.0000
  Au  Au6       1.0  0.0012500000395796562  0.0017590782271149998  0.9981684426535636  1.0000
  Au  Au7       1.0  0.0037499999773830534  0.004392844533356843  0.9976424817003603  1.0000
  Au  Au8       1.0  0.0012500000395796562  0.006759078027475627  0.9991109049937988  1.0000
  Al  Al5       1.0  0.008750000135701678  0.008961368477701823  0.9985591545085784  1.0000
  Al  Al6       1.0  0.006249999773830535  0.0010386315276938356  0.9997896640297105  1.0000
  Al  Al7       1.0  0.006250000339254196  0.006111740885204347  0.9998874386597137  1.0000
  Al  Al8       1.0  0.008750000135701678  0.003961368542449728  0.9987201935837381  1.0000
  Au  Au9       1.0  0.008750000135701678  0.0037271753707534094  0.9995520946517757  1.0000
  Au  Au10      1.0  0.008750000135701678  0.008677959344427982  0.00014783684595895795  1.0000
  Au  Au11      1.0  0.006250000339254196  0.0011212804745941998  0.9990052626877236  1.0000
  Au  Au12      1.0  0.006250000339254196  0.006121280409846295  0.9982740849596389  1.0000
  Au  Au13      1.0  0.008750000135701678  0.00875504658119667  0.9977481240064355  1.0000
  Au  Au14      1.0  0.006250000339254196  0.0017590782271149998  0.9981684426535636  1.0000
  Au  Au15      1.0  0.008750000135701678  0.004392844533356843  0.9976424817003603  1.0000
  Au  Au16      1.0  0.006250000339254196  0.006759078027475627  0.9991109049937988  1.0000
  H   H1        1.0  0.0012500000395796562  0.0037271753707534094  0.0  1.0000
