data_image0
_chemical_formula_structural       COFe2Cu2Pt4Fe2Cu2Pt4Fe2Cu2Pt4Fe2Cu2Pt4
_chemical_formula_sum              "C1 O1 Fe8 Cu8 Pt16"
_cell_length_a       7.119394302368164
_cell_length_b       5.562255382537842
_cell_length_c       103.37353515625
_cell_angle_alpha    90.0
_cell_angle_beta     90.0
_cell_angle_gamma    90.0

_space_group_name_H-M_alt    "P 1"
_space_group_IT_number       1

loop_
  _space_group_symop_operation_xyz
  'x, y, z'

loop_
  _atom_site_type_symbol
  _atom_site_label
  _atom_site_symmetry_multiplicity
  _atom_site_fract_x
  _atom_site_fract_y
  _atom_site_fract_z
  _atom_site_occupancy
  C   C1        1.0  0.004999999853487356  0.0012500022101570567  0.00016755268840424828  1.0000
  O   O1        1.0  0.004999999853487356  0.0012500022101570567  0.0002836367934951396  1.0000
  Fe  Fe1       1.0  5.000000151694179e-11  0.00625  0.9994693701669362  1.0000
  Fe  Fe2       1.0  5.000000151694179e-11  0.0012500000334872282  0.9992003333308486  1.0000
  Cu  Cu1       1.0  5.000000151694179e-11  0.00625  0.9992003333308486  1.0000
  Cu  Cu2       1.0  5.000000151694179e-11  0.0012500000334872282  0.9994693701669362  1.0000
  Pt  Pt1       1.0  0.0025000001883733994  0.008750000401846737  0.9990658149128049  1.0000
  Pt  Pt2       1.0  0.0025000001883733994  0.003749999933025544  0.9993348517488924  1.0000
  Pt  Pt3       1.0  0.0025000001883733994  0.003749999933025544  0.9990658149128049  1.0000
  Pt  Pt4       1.0  0.0025000001883733994  0.008750000401846737  0.9993348517488924  1.0000
  Fe  Fe3       1.0  0.009999999706974712  0.006250002009233689  0.999986534204601  1.0000
  Fe  Fe4       1.0  5.000000151694179e-11  0.001250001289258283  0.9997415886532339  1.0000
  Cu  Cu3       1.0  1.50000008449412e-10  0.006250002009233689  0.9997353614291905  1.0000
  Cu  Cu4       1.0  0.009999999706974712  0.0012500022101570567  0.0  1.0000
  Pt  Pt5       1.0  0.0025000001883733994  0.008750000401846737  0.9996038885849798  1.0000
  Pt  Pt6       1.0  0.0025000001883733994  0.0037640049615748792  0.9998762431476549  1.0000
  Pt  Pt7       1.0  0.0025000001883733994  0.003749999933025544  0.9996038885849798  1.0000
  Pt  Pt8       1.0  0.002499999926743678  0.008735999391764778  0.9998762431476549  1.0000
  Fe  Fe5       1.0  0.004999999853487356  0.00625  0.9994693701669362  1.0000
  Fe  Fe6       1.0  0.004999999853487356  0.0012500000334872282  0.9992003333308486  1.0000
  Cu  Cu5       1.0  0.004999999853487356  0.00625  0.9992003333308486  1.0000
  Cu  Cu6       1.0  0.004999999853487356  0.0012500000334872282  0.9994693701669362  1.0000
  Pt  Pt9       1.0  0.007500000041860755  0.008750000401846737  0.9990658149128049  1.0000
  Pt  Pt10      1.0  0.007500000041860755  0.003749999933025544  0.9993348517488924  1.0000
  Pt  Pt11      1.0  0.007500000041860755  0.003749999933025544  0.9990658149128049  1.0000
  Pt  Pt12      1.0  0.007500000041860755  0.008750000401846737  0.9993348517488924  1.0000
  Fe  Fe7       1.0  0.004999999853487356  0.006250002009233689  0.999986534204601  1.0000
  Fe  Fe8       1.0  0.004999999853487356  0.001250001289258283  0.9997415886532339  1.0000
  Cu  Cu7       1.0  0.005000000376746799  0.006250002009233689  0.9997353614291905  1.0000
  Cu  Cu8       1.0  0.004999999853487356  0.0012500022101570567  0.0  1.0000
  Pt  Pt13      1.0  0.007500000041860755  0.008750000401846737  0.9996038885849798  1.0000
  Pt  Pt14      1.0  0.007500000041860755  0.0037640049615748792  0.9998762431476549  1.0000
  Pt  Pt15      1.0  0.007500000041860755  0.003749999933025544  0.9996038885849798  1.0000
  Pt  Pt16      1.0  0.007500000041860755  0.008735999391764778  0.9998762431476549  1.0000
