data_image0
_chemical_formula_structural       In4Sb4H
_chemical_formula_sum              "In4 Sb4 H1"
_cell_length_a       4.740214336637632
_cell_length_b       9.137067252985231
_cell_length_c       33.45172882080078
_cell_angle_alpha    117.49782476659296
_cell_angle_beta     74.96584811280671
_cell_angle_gamma    74.96584799522337

_space_group_name_H-M_alt    "P 1"
_space_group_IT_number       1

loop_
  _space_group_symop_operation_xyz
  'x, y, z'

loop_
  _atom_site_type_symbol
  _atom_site_label
  _atom_site_symmetry_multiplicity
  _atom_site_fract_x
  _atom_site_fract_y
  _atom_site_fract_z
  _atom_site_occupancy
  In  In1       1.0  0.0016839048019663412  0.009342105444448447  0.999831244778639  1.0000
  In  In2       1.0  0.0016839049665964743  0.00434210562897633  0.9984655356730175  1.0000
  In  In3       1.0  0.005017238243380804  0.003508772070108917  0.9996036266981723  1.0000
  In  In4       1.0  0.006135518494233268  0.007683286400101459  0.0005919063008868069  1.0000
  Sb  Sb1       1.0  0.001683905081431179  0.0012130463230924787  0.9993202122817367  1.0000
  Sb  Sb2       1.0  0.0017749948552244514  0.006024986084137235  0.0006945895664147671  1.0000
  Sb  Sb3       1.0  0.004857194758487726  0.0006578946350010586  0.0004718358187559042  1.0000
  Sb  Sb4       1.0  0.0050172386056833  0.005379713092274636  0.9990925943766881  1.0000
  H   H1        1.0  0.008316094904546437  0.008341440463366082  0.0010316199665407829  1.0000
