data_image0
_chemical_formula_structural       HPb8Pd4
_chemical_formula_sum              "H1 Pb8 Pd4"
_cell_length_a       5.840286731719971
_cell_length_b       5.840286418969497
_cell_length_c       100.12066650390625
_cell_angle_alpha    90.0
_cell_angle_beta     90.0
_cell_angle_gamma    118.53574555664508

_space_group_name_H-M_alt    "P 1"
_space_group_IT_number       1

loop_
  _space_group_symop_operation_xyz
  'x, y, z'

loop_
  _atom_site_type_symbol
  _atom_site_label
  _atom_site_symmetry_multiplicity
  _atom_site_fract_x
  _atom_site_fract_y
  _atom_site_fract_z
  _atom_site_occupancy
  H   H1        1.0  0.0024999999118160876  0.007500000029042546  0.00031355751699914104  1.0000
  Pb  Pb1       1.0  0.005867212489860042  0.00413278766571909  0.0  1.0000
  Pb  Pb2       1.0  0.0008672125764528167  0.009132787927102003  0.9994985941470124  1.0000
  Pb  Pb3       1.0  0.007499999679715698  0.0025000001306914564  0.9993348560031855  1.0000
  Pb  Pb4       1.0  0.0024999999118160876  0.007500000029042546  0.9998362621538373  1.0000
  Pb  Pb5       1.0  0.009132787145146079  0.0008672125049058669  0.0  1.0000
  Pb  Pb6       1.0  0.004132787340869565  0.005867212494014912  0.9994985941470124  1.0000
  Pb  Pb7       1.0  0.0024999999118160876  0.007500000029042546  0.0001637378461628028  1.0000
  Pb  Pb8       1.0  0.007499999679715698  0.0025000001306914564  0.9996623319931752  1.0000
  Pd  Pd1       1.0  0.0024999999412386497  0.0025000001306914564  0.9997492969246742  1.0000
  Pd  Pd2       1.0  0.00749999980975835  0.007500000029042546  0.9992478910716865  1.0000
  Pd  Pd3       1.0  0.00749999980975835  0.007500000029042546  0.9997492969246742  1.0000
  Pd  Pd4       1.0  0.0024999999412386497  0.0025000001306914564  0.9992478910716865  1.0000
