data_image0
_chemical_formula_structural       COAl8Fe12Si12
_chemical_formula_sum              "C1 O1 Al8 Fe12 Si12"
_cell_length_a       4.628602156756036
_cell_length_b       8.777616882445479
_cell_length_c       37.6332893371582
_cell_angle_alpha    80.3987974506209
_cell_angle_beta     95.28671871759492
_cell_angle_gamma    112.33832955770167

_space_group_name_H-M_alt    "P 1"
_space_group_IT_number       1

loop_
  _space_group_symop_operation_xyz
  'x, y, z'

loop_
  _atom_site_type_symbol
  _atom_site_label
  _atom_site_symmetry_multiplicity
  _atom_site_fract_x
  _atom_site_fract_y
  _atom_site_fract_z
  _atom_site_occupancy
  C   C1        1.0  0.00423840574459284  0.0031371113188268245  6.676123916827158e-05  1.0000
  O   O1        1.0  0.00423840574459284  0.0031371113188268245  0.00038562811551344815  1.0000
  Al  Al1       1.0  0.00586327642905951  0.001358592529034935  0.997070022308023  1.0000
  Al  Al2       1.0  0.005863276676443372  0.006358592825745765  0.9985034478994481  1.0000
  Al  Al3       1.0  0.0005289063563320864  0.00957816866099862  0.99850802354043  1.0000
  Al  Al4       1.0  0.0005289064323386584  0.004578168827898461  0.9970745979346343  1.0000
  Al  Al5       1.0  0.009081038894704076  0.0004218314688123686  0.9995591191771139  1.0000
  Al  Al6       1.0  0.009471093932987907  0.005399365192371873  0.9981429591971901  1.0000
  Al  Al7       1.0  0.004136723734197136  0.0086189414912354  0.9981475352174684  1.0000
  Al  Al8       1.0  0.004110818315374073  0.003445500501545151  0.9995997461610683  1.0000
  Fe  Fe1       1.0  0.003791605652814251  0.006289922349440617  0.9993340326831481  1.0000
  Fe  Fe2       1.0  0.0036489159730513634  0.0012930749530054551  0.9979018917316239  1.0000
  Fe  Fe3       1.0  0.0063510836599038915  0.0036844586546513815  0.9987490910239549  1.0000
  Fe  Fe4       1.0  0.006351084109357673  0.00868445895136221  0.9973156654015032  1.0000
  Fe  Fe5       1.0  0.0013512206302432413  0.006861922414538973  0.9986678050700875  1.0000
  Fe  Fe6       1.0  0.0013512204302195171  0.001861922117828143  0.9972343794791991  1.0000
  Fe  Fe7       1.0  0.008742018833295737  0.0031077156205760416  0.9994087195043557  1.0000
  Fe  Fe8       1.0  0.008648779457006832  0.00811561143883152  0.9979831776652427  1.0000
  Fe  Fe9       1.0  0.0004600192971156877  0.008542824963931831  0.9992143177010816  1.0000
  Fe  Fe10      1.0  0.0003977890058470325  0.0035286034098661336  0.9977853177837848  1.0000
  Fe  Fe11      1.0  0.009602211031248063  0.001448930197790703  0.9988656649763741  1.0000
  Fe  Fe12      1.0  0.009602211157409614  0.0064489306104042006  0.9974322393457498  1.0000
  Si  Si1       1.0  0.004533204176427882  0.0012081892298463916  0.9991498903711146  1.0000
  Si  Si2       1.0  0.00456937355960714  0.0061844847652044125  0.9977022649911369  1.0000
  Si  Si3       1.0  0.007242104880435075  0.002111666636822502  0.9983393075303839  1.0000
  Si  Si4       1.0  0.007671359584950303  0.007038647093711487  0.9997707503846435  1.0000
  Si  Si5       1.0  0.005430626901550848  0.008793049551776752  0.9989487177303951  1.0000
  Si  Si6       1.0  0.005430626654166986  0.003793049255065922  0.9975152921389701  1.0000
  Si  Si7       1.0  0.0017918099738121482  0.004301536512581964  0.9989130522511607  1.0000
  Si  Si8       1.0  0.00179181022119601  0.009301536809292793  0.9974796266264189  1.0000
  Si  Si9       1.0  0.008259625764244284  0.00563885348428121  0.9991870444809235  1.0000
  Si  Si10      1.0  0.008208189457073188  0.0006759970950748732  0.9977379305021283  1.0000
  Si  Si11      1.0  0.003261766600634424  0.00797479618784739  0.9997267276096916  1.0000
  Si  Si12      1.0  0.0027578951364726693  0.002865867086737002  0.9983116752250372  1.0000
