data_image0
_chemical_formula_structural       HPd6Sn24
_chemical_formula_sum              "H1 Pd6 Sn24"
_cell_length_a       6.731077028441603
_cell_length_b       13.257993786274499
_cell_length_c       104.82482147216797
_cell_angle_alpha    100.41603038246527
_cell_angle_beta     90.41013512852315
_cell_angle_gamma    91.07735781221825

_space_group_name_H-M_alt    "P 1"
_space_group_IT_number       1

loop_
  _space_group_symop_operation_xyz
  'x, y, z'

loop_
  _atom_site_type_symbol
  _atom_site_label
  _atom_site_symmetry_multiplicity
  _atom_site_fract_x
  _atom_site_fract_y
  _atom_site_fract_z
  _atom_site_occupancy
  H   H1        1.0  0.008693769308342245  0.007570449133497298  0.00017710522181680005  1.0000
  Pd  Pd1       1.0  0.004811240677351011  0.009434864830947793  0.9997173659995156  1.0000
  Pd  Pd2       1.0  0.009811241018476654  0.005268198392882786  0.9994405165020616  1.0000
  Pd  Pd3       1.0  0.00969285597943968  0.003605421360590259  0.9999800499553816  1.0000
  Pd  Pd4       1.0  0.002311240703319205  0.006518197981399799  0.9998557905079476  1.0000
  Pd  Pd5       1.0  0.007311240635005232  0.0023515316862108286  0.9995789412978785  1.0000
  Pd  Pd6       1.0  0.006977423322769557  0.000707001424055749  0.00010398659723300786  1.0000
  Sn  Sn1       1.0  0.0019529443096464323  0.00871266132510543  0.999880562984461  1.0000
  Sn  Sn2       1.0  0.007058909024899113  0.004537230013667819  0.9996105013958069  1.0000
  Sn  Sn3       1.0  0.006971568460781655  0.0027972696316155587  0.0001345047530425512  1.0000
  Sn  Sn4       1.0  0.004547062320270597  0.009272267900186591  0.00016691667928142424  1.0000
  Sn  Sn5       1.0  0.008779339560370795  0.005424239028053045  0.9998929683810974  1.0000
  Sn  Sn6       1.0  0.0037640305138775853  0.0012212613595364969  0.9996175078787047  1.0000
  Sn  Sn7       1.0  0.005858451002695535  0.008744898731110829  0.9994529687798326  1.0000
  Sn  Sn8       1.0  0.005806353520630802  0.007097211122849655  1.6639347855360555e-06  1.0000
  Sn  Sn9       1.0  0.0008584508583958347  0.002911565317766914  0.9997298183717527  1.0000
  Sn  Sn10      1.0  0.0074807632895513565  0.00904506071093141  0.999909142409965  1.0000
  Sn  Sn11      1.0  0.0025635723633640264  0.004902736349061055  0.9996347869799906  1.0000
  Sn  Sn12      1.0  0.007563572419275666  0.0007360696966819914  0.9993579377618109  1.0000
  Sn  Sn13      1.0  0.0033584507962163327  0.006398468433805043  0.9994019501391451  1.0000
  Sn  Sn14      1.0  0.003146202521406753  0.0046807744248802885  0.9999424742092979  1.0000
  Sn  Sn15      1.0  0.00835845091763831  0.0005651350918991473  0.9996787992239132  1.0000
  Sn  Sn16      1.0  0.009936427408301036  0.001460646444938785  0.9999669871634114  1.0000
  Sn  Sn17      1.0  0.005063572569843229  0.00724916664636684  0.999685805904984  1.0000
  Sn  Sn18      1.0  6.357240759620731e-05  0.003082499922549758  0.9994089566253663  1.0000
  Sn  Sn19      1.0  0.0042638043161280295  0.001077952193719131  0.9999306412744446  1.0000
  Sn  Sn20      1.0  0.00955890922006669  0.00688366002522153  0.9996615203142609  1.0000
  Sn  Sn21      1.0  0.004558909217804365  0.0027169933014044483  0.9993846710347167  1.0000
  Sn  Sn22      1.0  0.001525918781470917  0.007562830411694399  0.00011192205683126366  1.0000
  Sn  Sn23      1.0  0.006264030592046806  0.003041497928923831  0.9998433382366523  1.0000
  Sn  Sn24      1.0  0.0012640306810004496  0.008874831342267745  0.9995664891536145  1.0000
