data_image0
_chemical_formula_structural       COCo6Pt2Co6Pt2
_chemical_formula_sum              "C1 O1 Co12 Pt4"
_cell_length_a       5.181941509246826
_cell_length_b       5.181941375024971
_cell_length_c       98.81298828125
_cell_angle_alpha    90.0
_cell_angle_beta     90.0
_cell_angle_gamma    120.00000085682623

_space_group_name_H-M_alt    "P 1"
_space_group_IT_number       1

loop_
  _space_group_symop_operation_xyz
  'x, y, z'

loop_
  _atom_site_type_symbol
  _atom_site_label
  _atom_site_symmetry_multiplicity
  _atom_site_fract_x
  _atom_site_fract_y
  _atom_site_fract_z
  _atom_site_occupancy
  C   C1        1.0  0.0012276446890496673  0.00412756299584949  0.0001701687988201627  1.0000
  O   O1        1.0  0.0012276446890496673  0.00412756299584949  0.00029160996685664555  1.0000
  Co  Co1       1.0  0.0019381724187102825  0.003165817175380024  0.9993688936070796  1.0000
  Co  Co2       1.0  0.007189446899036366  0.008417091748505584  0.9993688936070796  1.0000
  Co  Co3       1.0  0.0019381725564409195  0.008417091748505584  0.9993688936070796  1.0000
  Co  Co4       1.0  0.008772355163223758  0.006834182849523353  0.9995771729976591  1.0000
  Co  Co5       1.0  0.0035210808091273274  0.0015829084839259389  0.9995771729976591  1.0000
  Co  Co6       1.0  0.008772354792273493  0.0015829084839259389  0.9995771729976591  1.0000
  Pt  Pt1       1.0  0.003688597125944261  0.006666666544916821  0.9995771729976591  1.0000
  Pt  Pt2       1.0  0.007021930374691287  0.0033333332724584104  0.9993688936070796  1.0000
  Co  Co7       1.0  0.001963679038458347  0.0032164830970084707  0.9997860498643567  1.0000
  Co  Co8       1.0  0.007139039942635544  0.008391529261561595  0.9997860788182725  1.0000
  Co  Co9       1.0  0.0019631489969025814  0.00839178493623779  0.9997860628332982  1.0000
  Co  Co10      1.0  0.008766028212702772  0.006821421113697107  0.9999898546685216  1.0000
  Co  Co11      1.0  0.0035328596359760042  0.0015887625416397754  0.999989779267699  1.0000
  Co  Co12      1.0  0.00876675444722783  0.001588511328818725  0.9999897653939478  1.0000
  Pt  Pt3       1.0  0.003688534313571179  0.006666614247823962  0.0  1.0000
  Pt  Pt4       1.0  0.007021978714963166  0.0033337477061664957  0.9997857473562566  1.0000
