data_image0
_chemical_formula_structural       HPt3Rh9Pt3Rh9
_chemical_formula_sum              "H1 Pt6 Rh18"
_cell_length_a       7.772741794586182
_cell_length_b       4.750413063768932
_cell_length_c       101.31008911132812
_cell_angle_alpha    92.77248540163568
_cell_angle_beta     90.0
_cell_angle_gamma    114.1455543589894

_space_group_name_H-M_alt    "P 1"
_space_group_IT_number       1

loop_
  _space_group_symop_operation_xyz
  'x, y, z'

loop_
  _atom_site_type_symbol
  _atom_site_label
  _atom_site_symmetry_multiplicity
  _atom_site_fract_x
  _atom_site_fract_y
  _atom_site_fract_z
  _atom_site_occupancy
  H   H1        1.0  0.0023335689502464465  0.00010799770397340752  5.8419875331959155e-05  1.0000
  Pt  Pt1       1.0  0.00411077983383375  0.007214451567094756  0.9993409109203101  1.0000
  Pt  Pt2       1.0  0.00022189102046723505  0.001658895951775154  0.9996843022281523  1.0000
  Pt  Pt3       1.0  0.001317079183854809  0.006042681345420136  1.3705204158591478e-05  1.0000
  Rh  Rh1       1.0  0.002583002042310241  0.0011033404010007222  0.9992550631560696  1.0000
  Rh  Rh2       1.0  0.004527446550702215  0.008881118434568618  0.999083367754911  1.0000
  Rh  Rh3       1.0  0.00105522434356794  0.004992229363997028  0.9991692153082836  1.0000
  Rh  Rh4       1.0  0.003694113224540567  0.005547785129922026  0.9995984546750236  1.0000
  Rh  Rh5       1.0  0.0006385576505323523  0.0033255627116737323  0.99942675876834  1.0000
  Rh  Rh6       1.0  0.0021663355526920862  0.009436674200493614  0.9995126065333124  1.0000
  Rh  Rh7       1.0  0.009778109105905689  0.009892002505798393  0.9999375619822448  1.0000
  Rh  Rh8       1.0  0.0017465011694492935  0.007763314859530433  0.9997662647220237  1.0000
  Rh  Rh9       1.0  0.0032440083721012323  0.0037491122027066698  0.9998594288033212  1.0000
  Pt  Pt4       1.0  0.009110779862590323  0.007214451567094756  0.9993409109203101  1.0000
  Pt  Pt5       1.0  0.005221890824563082  0.001658895951775154  0.9996843022281523  1.0000
  Pt  Pt6       1.0  0.006317078957995891  0.006042681345420136  1.3705204158591478e-05  1.0000
  Rh  Rh10      1.0  0.007583002071066815  0.0011033404010007222  0.9992550631560696  1.0000
  Rh  Rh11      1.0  0.009527446579458788  0.008881118434568618  0.999083367754911  1.0000
  Rh  Rh12      1.0  0.00605522417761855  0.004992229363997028  0.9991692153082836  1.0000
  Rh  Rh13      1.0  0.00869411325329714  0.005547785129922026  0.9995984546750236  1.0000
  Rh  Rh14      1.0  0.005638557514537726  0.0033255627116737323  0.99942675876834  1.0000
  Rh  Rh15      1.0  0.007166335386742696  0.009436674200493614  0.9995126065333124  1.0000
  Rh  Rh16      1.0  0.004778109077149114  0.009892002505798393  0.9999375619822448  1.0000
  Rh  Rh17      1.0  0.006746501168251103  0.007763314859530433  0.9997662647220237  1.0000
  Rh  Rh18      1.0  0.008244008400857804  0.0037491122027066698  0.9998594288033212  1.0000
