data_image0
_chemical_formula_structural       Re6Pd2Re6Pd2H
_chemical_formula_sum              "Re12 Pd4 H1"
_cell_length_a       5.581286907196045
_cell_length_b       5.5812868211391296
_cell_length_c       101.11146545410156
_cell_angle_alpha    90.0
_cell_angle_beta     90.0
_cell_angle_gamma    120.00000051005081

_space_group_name_H-M_alt    "P 1"
_space_group_IT_number       1

loop_
  _space_group_symop_operation_xyz
  'x, y, z'

loop_
  _atom_site_type_symbol
  _atom_site_label
  _atom_site_symmetry_multiplicity
  _atom_site_fract_x
  _atom_site_fract_y
  _atom_site_fract_z
  _atom_site_occupancy
  Re  Re1       1.0  0.008375783751948111  0.001624218276779531  0.9995668695637296  1.0000
  Re  Re2       1.0  0.0031670352023671555  0.001624218276779531  0.9995668695637296  1.0000
  Re  Re3       1.0  0.008375783640271724  0.0068329667698729165  0.9995668695637296  1.0000
  Re  Re4       1.0  0.001569951417485288  0.008430050399983822  0.9993470877692867  1.0000
  Re  Re5       1.0  0.006778699800201039  0.008430050399983822  0.9993470877692867  1.0000
  Re  Re6       1.0  0.0015699513805473516  0.0032213019068904353  0.9993470877692867  1.0000
  Pd  Pd1       1.0  0.006639534078347481  0.00336046764602443  0.9993470877692867  1.0000
  Pd  Pd2       1.0  0.0033062010856128323  0.0066938014160976105  0.9995668695637296  1.0000
  Re  Re7       1.0  0.008430031006223188  0.001569963145374068  0.0  1.0000
  Re  Re8       1.0  0.0030585174182746937  0.001569949368800966  0.9999999982315168  1.0000
  Re  Re9       1.0  0.008430048381186871  0.006941482235026133  0.9999999982315168  1.0000
  Re  Re10      1.0  0.0015817974690031371  0.008418207556779057  0.9997946207332488  1.0000
  Re  Re11      1.0  0.006755027166132327  0.008418236073321981  0.9997946213227432  1.0000
  Re  Re12      1.0  0.0015817738408566706  0.003244978730050135  0.9997946213227432  1.0000
  Pd  Pd3       1.0  0.006639512313988894  0.003360481518937204  0.999781747354085  1.0000
  Pd  Pd4       1.0  0.003306220036254878  0.006693796021075975  1.2542672793736488e-05  1.0000
  H   H1        1.0  0.0031823686687305116  0.004131872502259127  0.00015462143913301274  1.0000
