data_image0
_chemical_formula_structural       COIr9Rh3Ir9Rh3
_chemical_formula_sum              "C1 O1 Ir18 Rh6"
_cell_length_a       7.750661373138428
_cell_length_b       4.745000676735755
_cell_length_c       101.24077606201172
_cell_angle_alpha    92.88464488295858
_cell_angle_beta     90.0
_cell_angle_gamma    114.1018126791339

_space_group_name_H-M_alt    "P 1"
_space_group_IT_number       1

loop_
  _space_group_symop_operation_xyz
  'x, y, z'

loop_
  _atom_site_type_symbol
  _atom_site_label
  _atom_site_symmetry_multiplicity
  _atom_site_fract_x
  _atom_site_fract_y
  _atom_site_fract_z
  _atom_site_occupancy
  C   C1        1.0  0.0015071423415968376  0.0029740701168803722  0.00010511154265081293  1.0000
  O   O1        1.0  0.0015071423415968376  0.0029740701168803722  0.00022364109947033836  1.0000
  Ir  Ir1       1.0  0.002578520622198425  0.0005917602931182742  0.9992525033520424  1.0000
  Ir  Ir2       1.0  0.004522965167018569  0.00836953847239885  0.9990810706846388  1.0000
  Ir  Ir3       1.0  0.0010507427850209796  0.004480649328921774  0.9991667870182136  1.0000
  Ir  Ir4       1.0  0.0036896317791306242  0.005036204920847071  0.9995953688687422  1.0000
  Ir  Ir5       1.0  0.0006340760610369071  0.002813982553145885  0.9994239362574507  1.0000
  Ir  Ir6       1.0  0.0021618538611979975  0.008925093633629847  0.9995096525341515  1.0000
  Ir  Ir7       1.0  0.009782590656404406  0.009408239607822038  0.9999295571630034  1.0000
  Ir  Ir8       1.0  0.0017481149533980507  0.0072710604137443775  0.9997669025151175  1.0000
  Ir  Ir9       1.0  0.0032515199064702908  0.0032860222134340677  0.9998586224216249  1.0000
  Rh  Rh1       1.0  0.004106298473074596  0.00670287169662296  0.9993382199238758  1.0000
  Rh  Rh2       1.0  0.00021740944658150372  0.0011473158850435706  0.9996810854969418  1.0000
  Rh  Rh3       1.0  0.0013217164919686216  0.005565547165615286  1.3127285062023193e-05  1.0000
  Ir  Ir10      1.0  0.007578520814455066  0.0005917602931182742  0.9992525033520424  1.0000
  Ir  Ir11      1.0  0.00952296535927521  0.00836953847239885  0.9990810706846388  1.0000
  Ir  Ir12      1.0  0.00605074297727762  0.004480649328921774  0.9991667870182136  1.0000
  Ir  Ir13      1.0  0.008689631971387266  0.005036204920847071  0.9995953688687422  1.0000
  Ir  Ir14      1.0  0.005634076283333648  0.002813982553145885  0.9994239362574507  1.0000
  Ir  Ir15      1.0  0.007161854053454639  0.008925093633629847  0.9995096525341515  1.0000
  Ir  Ir16      1.0  0.004782590464147764  0.009408239607822038  0.9999295571630034  1.0000
  Ir  Ir17      1.0  0.006748115040514342  0.0072710604137443775  0.9997669025151175  1.0000
  Ir  Ir18      1.0  0.008251520098726931  0.0032860222134340677  0.9998586224216249  1.0000
  Rh  Rh4       1.0  0.009106298665331237  0.00670287169662296  0.9993382199238758  1.0000
  Rh  Rh5       1.0  0.00521740961630807  0.0011473158850435706  0.9996810854969418  1.0000
  Rh  Rh6       1.0  0.006321716541534787  0.005565547165615286  1.3127285062023193e-05  1.0000
