data_image0
_chemical_formula_structural       HIn10Pt10
_chemical_formula_sum              "H1 In10 Pt10"
_cell_length_a       7.1072747086964805
_cell_length_b       7.325580842597475
_cell_length_c       101.2240219116211
_cell_angle_alpha    89.2921618619861
_cell_angle_beta     89.10255551113514
_cell_angle_gamma    77.15519263678443

_space_group_name_H-M_alt    "P 1"
_space_group_IT_number       1

loop_
  _space_group_symop_operation_xyz
  'x, y, z'

loop_
  _atom_site_type_symbol
  _atom_site_label
  _atom_site_symmetry_multiplicity
  _atom_site_fract_x
  _atom_site_fract_y
  _atom_site_fract_z
  _atom_site_occupancy
  H   H1        1.0  0.008716411352712884  0.004960607555799443  5.159419753738431e-05  1.0000
  In  In1       1.0  0.00039915583885917044  0.009449461487750565  0.9996240738945914  1.0000
  In  In2       1.0  0.0029760896402049714  0.006807148589915751  4.0020655509438965e-05  1.0000
  In  In3       1.0  0.002064032920752272  0.0009870008051252946  0.9999271332883738  1.0000
  In  In4       1.0  0.009164047309905063  0.003662707412066651  0.9995070722307405  1.0000
  In  In5       1.0  0.009134264929726809  0.007736214666272928  0.9993554949327037  1.0000
  In  In6       1.0  0.0016350336872326164  0.005193440799322036  0.9997385879488013  1.0000
  In  In7       1.0  0.006219442568943155  0.0009660499964847959  0.9997637623141357  1.0000
  In  In8       1.0  0.003737703055512965  0.003552737574137258  0.9993866778446728  1.0000
  In  In9       1.0  0.0045606085792113775  0.007846184765005098  0.9994758894796621  1.0000
  In  In10      1.0  0.00699579132351569  0.005440964020032858  0.999870232480559  1.0000
  Pt  Pt1       1.0  0.005399155508273253  0.0044494612373799  0.9996240738627926  1.0000
  Pt  Pt2       1.0  0.008130655723609846  0.0018731204882788807  0.9999679659707007  1.0000
  Pt  Pt3       1.0  0.0005032703519462652  0.004524391961485914  0.9999894701589267  1.0000
  Pt  Pt4       1.0  0.00795446430729204  0.007072431958099568  0.9996258133734198  1.0000
  Pt  Pt5       1.0  0.002843847263331921  0.0018264903862588433  0.9996223346460922  1.0000
  Pt  Pt6       1.0  0.005751925985767409  0.009007356966744033  0.9999856214541514  1.0000
  Pt  Pt7       1.0  0.003837026580946287  0.008015984585479316  0.9997504860187866  1.0000
  Pt  Pt8       1.0  0.0014755661281027565  0.0005505390129907658  0.9993676542933237  1.0000
  Pt  Pt9       1.0  0.006822745566013009  0.0008483830210123415  0.9994949131269051  1.0000
  Pt  Pt10      1.0  0.00960084384750328  0.008247237885781971  0.999893063486298  1.0000
