data_image0
_chemical_formula_structural       HRh3Pb3Rh3Pb3
_chemical_formula_sum              "H1 Rh6 Pb6"
_cell_length_a       5.78619085664345
_cell_length_b       4.534182548522949
_cell_length_c       104.71714782714844
_cell_angle_alpha    90.0
_cell_angle_beta     120.00000074315379
_cell_angle_gamma    90.0

_space_group_name_H-M_alt    "P 1"
_space_group_IT_number       1

loop_
  _space_group_symop_operation_xyz
  'x, y, z'

loop_
  _atom_site_type_symbol
  _atom_site_label
  _atom_site_symmetry_multiplicity
  _atom_site_fract_x
  _atom_site_fract_y
  _atom_site_fract_z
  _atom_site_occupancy
  H   H1        1.0  0.0066713467108150465  0.005000000164320261  0.0003963181691526552  1.0000
  Rh  Rh1       1.0  0.00501843762085105  5.000000223808973e-11  0.9997089480718475  1.0000
  Rh  Rh2       1.0  0.00501843762085105  5.000000223808973e-11  0.9994326711402876  1.0000
  Rh  Rh3       1.0  1.8437649484500835e-05  5.000000223808973e-11  0.9994326711752304  1.0000
  Pb  Pb1       1.0  0.003351771092956915  0.005000000164320261  0.9995247635608915  1.0000
  Pb  Pb2       1.0  0.006685104520457324  0.005000000164320261  0.9993405787299531  1.0000
  Pb  Pb3       1.0  1.8437649484500835e-05  5.000000223808973e-11  0.9997089481067903  1.0000
  Rh  Rh4       1.0  0.004943093800802641  1.5000000365356583e-10  0.00025307466907251787  1.0000
  Rh  Rh5       1.0  0.004940511888293853  0.009999999507039217  0.9999788896368582  1.0000
  Rh  Rh6       1.0  0.00998156224533258  8.500000288654153e-10  0.9999790005993694  1.0000
  Pb  Pb4       1.0  0.003536955106285168  0.005000000164320261  9.771798688546827e-05  1.0000
  Pb  Pb5       1.0  0.006685104520457324  0.005000000164320261  0.9998931328776713  1.0000
  Pb  Pb6       1.0  0.009937387231458499  0.010000000328640521  0.0002526850278349257  1.0000
