data_image0
_chemical_formula_structural       HTe12
_chemical_formula_sum              "H1 Te12"
_cell_length_a       7.892119407653809
_cell_length_b       7.548550107281866
_cell_length_c       100.19419860839844
_cell_angle_alpha    105.73962550905308
_cell_angle_beta     90.0
_cell_angle_gamma    90.0

_space_group_name_H-M_alt    "P 1"
_space_group_IT_number       1

loop_
  _space_group_symop_operation_xyz
  'x, y, z'

loop_
  _atom_site_type_symbol
  _atom_site_label
  _atom_site_symmetry_multiplicity
  _atom_site_fract_x
  _atom_site_fract_y
  _atom_site_fract_z
  _atom_site_occupancy
  H   H1        1.0  0.008109207424892335  0.009517959634988362  0.00028491380020578084  1.0000
  Te  Te1       1.0  0.005672376233718934  0.007982040282973868  0.9997331301101193  1.0000
  Te  Te2       1.0  0.005672376233718934  0.0029820401599172115  0.00010982608762110882  1.0000
  Te  Te3       1.0  0.0006723761676352098  0.0054820402214455395  0.9995447819998753  1.0000
  Te  Te4       1.0  0.0006723761676352098  0.0004820401945268961  0.9999214779793418  1.0000
  Te  Te5       1.0  0.0043276238984485136  0.0016658353916063154  0.9997595335893383  1.0000
  Te  Te6       1.0  0.0043276238984485136  0.006665835514662972  0.00013622951238075607  1.0000
  Te  Te7       1.0  0.009327623256492336  0.009165835063455231  0.9995711857116018  1.0000
  Te  Te8       1.0  0.009327623256492336  0.004165835453134644  0.9999478814021368  1.0000
  Te  Te9       1.0  0.0020171285029056294  0.005832501989908173  0.9998223161719584  1.0000
  Te  Te10      1.0  0.0020171285029056294  0.0008325021232195507  0.9994456202541553  1.0000
  Te  Te11      1.0  0.007017128568989353  0.003332502184747879  0.9996339683643993  1.0000
  Te  Te12      1.0  0.007017128568989353  0.008332502051436501  1.0664282202435485e-05  1.0000
