data_image0
_chemical_formula_structural       COZn8Cu8As8Zn8Cu8As8
_chemical_formula_sum              "C1 O1 Zn16 Cu16 As16"
_cell_length_a       8.543232917785645
_cell_length_b       12.695657212350401
_cell_length_c       103.54095458984375
_cell_angle_alpha    109.28336938655433
_cell_angle_beta     90.0
_cell_angle_gamma    90.0

_space_group_name_H-M_alt    "P 1"
_space_group_IT_number       1

loop_
  _space_group_symop_operation_xyz
  'x, y, z'

loop_
  _atom_site_type_symbol
  _atom_site_label
  _atom_site_symmetry_multiplicity
  _atom_site_fract_x
  _atom_site_fract_y
  _atom_site_fract_z
  _atom_site_occupancy
  C   C1        1.0  0.0008071957563926699  0.004410341223299105  0.00018233966844387087  1.0000
  O   O1        1.0  0.0008071957563926699  0.004410341223299105  0.00029823607258878823  1.0000
  Zn  Zn1       1.0  0.001661562592687126  0.004332154024202467  0.9993487146132757  1.0000
  Zn  Zn2       1.0  0.001661562592687126  0.009332154372378137  0.9995511765102271  1.0000
  Zn  Zn3       1.0  0.0039949001603721  0.0018321540055501989  0.9994499456115131  1.0000
  Zn  Zn4       1.0  0.0039949001603721  0.006832154198290303  0.9996524075021705  1.0000
  Zn  Zn5       1.0  0.00666156275838673  0.004332154024202467  0.9993741681063772  1.0000
  Zn  Zn6       1.0  0.00666156275838673  0.009332154372378137  0.9995766300033287  1.0000
  Zn  Zn7       1.0  0.00899490010804591  0.0018321540055501989  0.9994753991046147  1.0000
  Zn  Zn8       1.0  0.00899490010804591  0.006832154198290303  0.9996778609952722  1.0000
  Cu  Cu1       1.0  0.00395554563226169  0.004391883871416616  0.9995532975396483  1.0000
  Cu  Cu2       1.0  0.00395554563226169  0.009391883908721152  0.9993508358310046  1.0000
  Cu  Cu3       1.0  0.006700916850445551  0.0018918836973287805  0.9996805769718872  1.0000
  Cu  Cu4       1.0  0.006700916850445551  0.0068918837346333165  0.9994781152632435  1.0000
  Cu  Cu5       1.0  0.0089555455799355  0.004391883871416616  0.9995793462677749  1.0000
  Cu  Cu6       1.0  0.0089555455799355  0.009391883908721152  0.9993768842713  1.0000
  Cu  Cu7       1.0  0.0017009169027717421  0.0018918836973287805  0.9996545285315918  1.0000
  Cu  Cu8       1.0  0.0017009169027717421  0.0068918837346333165  0.9994520665351169  1.0000
  As  As1       1.0  0.0014636583982587407  0.0006081163601823796  0.9994022157667967  1.0000
  As  As2       1.0  0.0014636583982587407  0.005608116514063592  0.9996046776558807  1.0000
  As  As3       1.0  0.0041928043548004855  0.003108116339975756  0.9997059086478242  1.0000
  As  As4       1.0  0.0041928043548004855  0.008108116688151427  0.9995034466639371  1.0000
  As  As5       1.0  0.006463658563958345  0.0006081163601823796  0.9994240005627856  1.0000
  As  As6       1.0  0.006463658563958345  0.005608116514063592  0.9996264624518695  1.0000
  As  As7       1.0  0.009192803866422706  0.003108116339975756  0.9993227695629746  1.0000
  As  As8       1.0  0.009192803866422706  0.008108116688151427  0.999525231459926  1.0000
  Zn  Zn9       1.0  0.001661562592687126  0.004332154024202467  0.999753638494114  1.0000
  Zn  Zn10      1.0  0.0015609542625208063  0.009158098245783534  0.9999233116961539  1.0000
  Zn  Zn11      1.0  0.004043697821717886  0.001911257497316461  0.9998706053290165  1.0000
  Zn  Zn12      1.0  0.004070909621198565  0.006485367499619594  1.5237131789940358e-05  1.0000
  Zn  Zn13      1.0  0.00666156275838673  0.004332154024202467  0.9997790919872157  1.0000
  Zn  Zn14      1.0  0.00646068643632017  0.009089566704131696  0.9999275148719877  1.0000
  Zn  Zn15      1.0  0.009009968306793676  0.0021748376715491377  0.9999409445834918  1.0000
  Zn  Zn16      1.0  0.009140557036999166  0.006493020525214445  1.4842410084186363e-05  1.0000
  Cu  Cu9       1.0  0.004158562967635679  0.004220212126425412  0.9999706784847306  1.0000
  Cu  Cu10      1.0  0.00395554563226169  0.009391883908721152  0.9997557594240117  1.0000
  Cu  Cu11      1.0  0.00626531134111441  0.00224540806153812  5.003202574232653e-05  1.0000
  Cu  Cu12      1.0  0.006615668328527883  0.0067221592864300786  0.9998808001052748  1.0000
  Cu  Cu13      1.0  0.009054220566364178  0.004274213862110974  0.999972958976335  1.0000
  Cu  Cu14      1.0  0.0089555455799355  0.009391883908721152  0.9997818081521385  1.0000
  Cu  Cu15      1.0  0.0017666926688299663  0.002097559615086026  2.8679707322228e-05  1.0000
  Cu  Cu16      1.0  0.0016074319113814238  0.006647702540950234  0.9998580085773411  1.0000
  As  As9       1.0  0.0014636583982587407  0.0006081163601823796  0.9998071393598038  1.0000
  As  As10      1.0  0.0016006737658121378  0.005427285883700891  1.3707038858384366e-05  1.0000
  As  As11      1.0  0.003935068649590226  0.0032182458590373194  0.00013031442322088593  1.0000
  As  As12      1.0  0.003984836525724002  0.008093417457416723  0.9999232192115404  1.0000
  As  As13      1.0  0.00663171459099226  0.0006998330985103971  0.9998388315373368  1.0000
  As  As14      1.0  0.006607618380122902  0.005506587866686679  3.547291831742709e-05  1.0000
  As  As15      1.0  0.009192803866422706  0.003108116339975756  0.9997276931559818  1.0000
  As  As16      1.0  0.009044348358364138  0.008168094299659959  0.9999380003852583  1.0000
