data_image0
_chemical_formula_structural       HRe9Ru3
_chemical_formula_sum              "H1 Re9 Ru3"
_cell_length_a       4.818551063537598
_cell_length_b       5.231431222283826
_cell_length_c       99.0093002319336
_cell_angle_alpha    89.55972007417353
_cell_angle_beta     90.0
_cell_angle_gamma    117.4218619234614

_space_group_name_H-M_alt    "P 1"
_space_group_IT_number       1

loop_
  _space_group_symop_operation_xyz
  'x, y, z'

loop_
  _atom_site_type_symbol
  _atom_site_label
  _atom_site_symmetry_multiplicity
  _atom_site_fract_x
  _atom_site_fract_y
  _atom_site_fract_z
  _atom_site_occupancy
  H   H1        1.0  0.00820254195992846  0.0017213164534132948  0.00010793030696920393  1.0000
  Re  Re1       1.0  0.004039500396856711  0.002293206552085767  0.999413990197369  1.0000
  Re  Re2       1.0  0.008523164291993653  0.007777157714218233  0.999347830989244  1.0000
  Re  Re3       1.0  0.0030392136522368273  0.0068092557910870025  0.9994801494741861  1.0000
  Re  Re4       1.0  0.0031304094376240895  0.0004750246336205237  0.9996803499235708  1.0000
  Re  Re5       1.0  0.007614073182335893  0.005958975494902714  0.9996141910165732  1.0000
  Re  Re6       1.0  0.002130122743145918  0.004991073972905184  0.9997465092003471  1.0000
  Re  Re7       1.0  0.0023394280537699357  0.008606108528166647  0.9999455973337951  1.0000
  Re  Re8       1.0  0.00671195830025197  0.004226438930763682  0.9998889865587771  1.0000
  Re  Re9       1.0  0.001340696941895079  0.003109002386905969  0.9999987376855244  1.0000
  Ru  Ru1       1.0  0.008659302765385544  0.0013841155427114329  0.9995471700604902  1.0000
  Ru  Ru2       1.0  0.007711190951005574  0.009524975867796602  0.9998073132677897  1.0000
  Ru  Ru3       1.0  0.006603409011997317  0.00792538223228016  6.273240051972747e-05  1.0000
