data_image0
_chemical_formula_structural       Ga18Ir4H
_chemical_formula_sum              "Ga18 Ir4 H1"
_cell_length_a       6.554213097643147
_cell_length_b       6.492948055267334
_cell_length_c       34.082462310791016
_cell_angle_alpha    90.0
_cell_angle_beta     86.77633152423799
_cell_angle_gamma    90.0

_space_group_name_H-M_alt    "P 1"
_space_group_IT_number       1

loop_
  _space_group_symop_operation_xyz
  'x, y, z'

loop_
  _atom_site_type_symbol
  _atom_site_label
  _atom_site_symmetry_multiplicity
  _atom_site_fract_x
  _atom_site_fract_y
  _atom_site_fract_z
  _atom_site_occupancy
  Ga  Ga1       1.0  0.009671160222250544  0.0074810606860370495  0.9993251879111121  1.0000
  Ga  Ga2       1.0  0.00018367869553152379  0.00245974228500608  0.997867237315725  1.0000
  Ga  Ga3       1.0  0.002027788447637475  0.006459497360557063  0.9978410927820124  1.0000
  Ga  Ga4       1.0  0.0019290136371054002  0.0034787329421763673  0.9991474302129973  1.0000
  Ga  Ga5       1.0  0.005947368751116248  0.008291241213270559  0.9999356848860765  1.0000
  Ga  Ga6       1.0  0.005875956329725416  0.002260703446508952  0.9986603663255136  1.0000
  Ga  Ga7       1.0  0.0038544245741097835  0.007249159079414182  0.9985583877958127  1.0000
  Ga  Ga8       1.0  0.004391221196342956  0.002890513905940052  0.9998716145953412  1.0000
  Ga  Ga9       1.0  0.005933984365863026  0.005405547904818929  0.9992176241220837  1.0000
  Ga  Ga10      1.0  0.006000879535882827  0.00432968515579657  0.9979412860176518  1.0000
  Ga  Ga11      1.0  0.003741200109688313  0.009583425836173658  0.9992280711927373  1.0000
  Ga  Ga12      1.0  0.0038829455941083537  0.0003794085477095073  0.997961625219708  1.0000
  Ga  Ga13      1.0  0.009816321397688376  0.003910152320140145  0.9999709441771127  1.0000
  Ga  Ga14      1.0  0.008799595992977267  0.005116224846418357  0.9985187783231098  1.0000
  Ga  Ga15      1.0  0.0008073747846611755  0.00029405045834025195  0.9986466504846302  1.0000
  Ga  Ga16      1.0  0.0014477656862922981  0.00970595002503911  0.9999975872961024  1.0000
  Ga  Ga17      1.0  0.007913377310673986  0.0015967860549847654  0.9993756271766713  1.0000
  Ga  Ga18      1.0  0.007885573585789151  0.008473215612866231  0.9980572039001693  1.0000
  Ir  Ir1       1.0  0.0027256906909795373  0.00632536173965511  0.9996623727566941  1.0000
  Ir  Ir2       1.0  0.00247157381096972  0.0036460719917323576  0.9983859406511933  1.0000
  Ir  Ir3       1.0  0.007255082566451495  0.00862836862572199  0.9988180918207422  1.0000
  Ir  Ir4       1.0  0.007255082566451495  0.0011037609099037145  0.9975007888029392  1.0000
  H   H1        1.0  0.0011984256501708648  0.006903210925974056  0.9999338895403715  1.0000
