data_image0
_chemical_formula_structural       HAl24W6
_chemical_formula_sum              "H1 Al24 W6"
_cell_length_a       5.279741287231445
_cell_length_b       5.244442236452852
_cell_length_c       16.482101440429688
_cell_angle_alpha    90.0
_cell_angle_beta     90.0
_cell_angle_gamma    100.00306642884635

_space_group_name_H-M_alt    "P 1"
_space_group_IT_number       1

loop_
  _space_group_symop_operation_xyz
  'x, y, z'

loop_
  _atom_site_type_symbol
  _atom_site_label
  _atom_site_symmetry_multiplicity
  _atom_site_fract_x
  _atom_site_fract_y
  _atom_site_fract_z
  _atom_site_occupancy
  H   H1        1.0  0.007542444445195863  0.001165691240207687  0.0006436146380411064  1.0000
  Al  Al1       1.0  0.0035122477243667103  0.005091779131121205  0.9972484468207176  1.0000
  Al  Al2       1.0  0.00993385861067886  0.008709581463734396  0.9972484468207176  1.0000
  Al  Al3       1.0  0.0033708450134922615  0.003358175124293707  0.9910045990041739  1.0000
  Al  Al4       1.0  0.008370845154608656  0.003358175124293707  0.9980805764420054  1.0000
  Al  Al5       1.0  0.001831413852380011  0.00807706772449036  0.9905566637423612  1.0000
  Al  Al6       1.0  0.00679174201624316  0.008064024530984563  0.9985327762557387  1.0000
  Al  Al7       1.0  0.008145250812877309  0.002134420196400214  0.9905000357003659  1.0000
  Al  Al8       1.0  0.0031103386421499164  0.002084989609011467  0.9985708597802454  1.0000
  Al  Al9       1.0  0.00321602502916182  0.004285509540724942  0.00010997517262313096  1.0000
  Al  Al10      1.0  0.008017154862439608  0.004250408758378572  0.9997602710661668  1.0000
  Al  Al11      1.0  0.00979474542451377  0.009709327856100894  0.9999280477784305  1.0000
  Al  Al12      1.0  0.004815432031151298  0.009537337015981608  0.0  1.0000
  Al  Al13      1.0  0.0085122480418786  0.005091779131121205  0.9918367281734212  1.0000
  Al  Al14      1.0  0.0049338584695624655  0.008709581463734396  0.9918367281734212  1.0000
  Al  Al15      1.0  0.008370845154608656  0.003358175124293707  0.9964163176514702  1.0000
  Al  Al16      1.0  0.0033708450134922615  0.003358175124293707  0.9926688577947091  1.0000
  Al  Al17      1.0  0.006831413728903164  0.00807706772449036  0.9959683823896576  1.0000
  Al  Al18      1.0  0.001831413852380011  0.00807706772449036  0.9931167935085625  1.0000
  Al  Al19      1.0  0.003145250671760912  0.002134420196400214  0.9959117543476623  1.0000
  Al  Al20      1.0  0.008145250812877309  0.002134420196400214  0.9931734206464763  1.0000
  Al  Al21      1.0  0.008108886141586993  0.004377347457460853  0.9947046230664809  1.0000
  Al  Al22      1.0  0.0031088858240751038  0.004377347457460853  0.9943805523796985  1.0000
  Al  Al23      1.0  0.0047359188912205535  0.009476478396899697  0.9945438403278567  1.0000
  Al  Al24      1.0  0.009735919032336948  0.009476478396899697  0.9945413351183227  1.0000
  W   W1        1.0  0.005066141433767807  0.00029067218898009916  0.9972484468207176  1.0000
  W   W2        1.0  0.006674910208684319  0.006904106452886106  0.9903538339864127  1.0000
  W   W3        1.0  0.0016246099387280406  0.006871345915041731  0.9988067346151096  1.0000
  W   W4        1.0  6.614139876432643e-05  0.00029067218898009916  0.9918367281734212  1.0000
  W   W5        1.0  0.0016749101557656707  0.006904106452886106  0.9957655526337091  1.0000
  W   W6        1.0  0.006674910208684319  0.006904106452886106  0.9933196232645108  1.0000
