data_image0
_chemical_formula_structural       COCa8In16Ir8Ca8In16Ir8
_chemical_formula_sum              "C1 O1 Ca16 In32 Ir16"
_cell_length_a       16.204479217529297
_cell_length_b       8.02896785736084
_cell_length_c       104.87967681884766
_cell_angle_alpha    90.0
_cell_angle_beta     90.0
_cell_angle_gamma    90.0

_space_group_name_H-M_alt    "P 1"
_space_group_IT_number       1

loop_
  _space_group_symop_operation_xyz
  'x, y, z'

loop_
  _atom_site_type_symbol
  _atom_site_label
  _atom_site_symmetry_multiplicity
  _atom_site_fract_x
  _atom_site_fract_y
  _atom_site_fract_z
  _atom_site_occupancy
  C   C1        1.0  0.005715312785213989  0.0075066431160687695  1.4691499047523026e-05  1.0000
  O   O1        1.0  0.005715312785213989  0.0075066431160687695  0.0001291085594606857  1.0000
  Ca  Ca1       1.0  0.0014300500756166507  0.00750664265208755  0.9998791240448951  1.0000
  Ca  Ca2       1.0  0.0036178965973713644  0.0025066429954336525  0.9995994899927175  1.0000
  Ca  Ca3       1.0  0.008568968126538552  0.0025066439233960916  0.9998291015678279  1.0000
  Ca  Ca4       1.0  0.006382103016409022  0.00750664265208755  0.9995563162741131  1.0000
  Ca  Ca5       1.0  0.003956257163822089  0.00750664265208755  0.9997152454338609  1.0000
  Ca  Ca6       1.0  0.0009953756481942166  0.0025066432274242624  0.9999782500344262  1.0000
  Ca  Ca7       1.0  0.005995180391190296  0.0025066429954336525  0.9999740445068663  1.0000
  Ca  Ca8       1.0  0.008976150269415032  0.00750664265208755  0.9997153448889046  1.0000
  In  In1       1.0  0.005401776944210407  0.004523435498385018  0.9997127181391232  1.0000
  In  In2       1.0  0.004598955107479989  0.0094628700625123  0.9999865860720274  1.0000
  In  In3       1.0  0.00039288017770427883  0.0005471473012981496  0.999715544935621  1.0000
  In  In4       1.0  0.0021218682573412037  0.009507303687987016  0.9995961824021231  1.0000
  In  In5       1.0  0.009551868536375678  0.005503137875293251  0.0  1.0000
  In  In6       1.0  0.005401776944210407  0.0004898508984658539  0.9997127181391232  1.0000
  In  In7       1.0  0.00955186761680517  0.009510148820825508  0.0  1.0000
  In  In8       1.0  0.004598955107479989  0.005550416633606458  0.9999865860720274  1.0000
  In  In9       1.0  0.00787813158633181  0.0005059816695459238  0.9995596244330222  1.0000
  In  In10      1.0  0.002877017030092702  0.0005898121723661575  0.999884598618812  1.0000
  In  In11      1.0  0.00787813158633181  0.004507304263323729  0.9995596244330222  1.0000
  In  In12      1.0  0.007116724906377423  0.00550600759913638  0.999850653191629  1.0000
  In  In13      1.0  0.002877017030092702  0.004423473992494105  0.999884598618812  1.0000
  In  In14      1.0  0.007116724906377423  0.00950727863300116  0.999850653191629  1.0000
  In  In15      1.0  0.0021218682573412037  0.005505981616188083  0.9995961824021231  1.0000
  In  In16      1.0  0.00039288017770427883  0.004466138921559766  0.999715544935621  1.0000
  Ir  Ir1       1.0  0.003207175717285595  0.00750664265208755  0.9999634460091007  1.0000
  Ir  Ir2       1.0  0.005715312785213989  0.0075066431160687695  0.9998495449782855  1.0000
  Ir  Ir3       1.0  0.009297285441100759  0.0025066429954336525  0.9995664493222745  1.0000
  Ir  Ir4       1.0  0.004361682927027357  0.0025066434594148723  0.9998689909967339  1.0000
  Ir  Ir5       1.0  0.0007027142876259414  0.00750664265208755  0.9995893575128708  1.0000
  Ir  Ir6       1.0  0.008279636300888885  0.00750664265208755  0.9999558527585969  1.0000
  Ir  Ir7       1.0  0.006858048802769223  0.0025066429954336525  0.9997076698011077  1.0000
  Ir  Ir8       1.0  0.0018714123094546915  0.0025066429954336525  0.9997293754381478  1.0000
  Ca  Ca9       1.0  0.0013821033244651424  0.00750664265208755  0.9993223497047201  1.0000
  Ca  Ca10      1.0  0.0036178965973713644  0.0025066429954336525  0.9990452094167227  1.0000
  Ca  Ca11      1.0  0.008617896634154184  0.0025066429954336525  0.9992791759861157  1.0000
  Ca  Ca12      1.0  0.006382103016409022  0.00750664265208755  0.999002035413961  1.0000
  Ca  Ca13      1.0  0.003976150232632212  0.00750664265208755  0.9991633213740859  1.0000
  Ca  Ca14      1.0  0.001023849459311668  0.0025066429954336525  0.9994404619462407  1.0000
  Ca  Ca15      1.0  0.006023849381148175  0.0025066429954336525  0.9994382046009072  1.0000
  Ca  Ca16      1.0  0.008976150269415032  0.00750664265208755  0.9991610640287525  1.0000
  In  In17      1.0  0.005392880099540785  0.004466138921559766  0.9991631210432124  1.0000
  In  In18      1.0  0.004607119514239601  0.009466138346223053  0.9994384046476236  1.0000
  In  In19      1.0  0.00039288017770427883  0.0005471473012981496  0.9991612640754688  1.0000
  In  In20      1.0  0.0021218682573412037  0.009507303687987016  0.9990419012578138  1.0000
  In  In21      1.0  0.009607119091237166  0.005547146957952047  0.9994402613312098  1.0000
  In  In22      1.0  0.005392880099540785  0.0005471473012981496  0.9991631210432124  1.0000
  In  In23      1.0  0.009607119091237166  0.009466138346223053  0.9994402613312098  1.0000
  In  In24      1.0  0.004607119514239601  0.005547146957952047  0.9994384046476236  1.0000
  In  In25      1.0  0.00787813158633181  0.0005059816695459238  0.9990053432887127  1.0000
  In  In26      1.0  0.0028781315495489896  0.0005059816695459238  0.9993190418299684  1.0000
  In  In27      1.0  0.00787813158633181  0.004507304263323729  0.9990053432887127  1.0000
  In  In28      1.0  0.007121868064231397  0.005505981616188083  0.9992824838608675  1.0000
  In  In29      1.0  0.0028781315495489896  0.004507304263323729  0.9993190418299684  1.0000
  In  In30      1.0  0.007121868064231397  0.009507303687987016  0.9992824838608675  1.0000
  In  In31      1.0  0.0021218682573412037  0.005505981616188083  0.9990419012578138  1.0000
  In  In32      1.0  0.00039288017770427883  0.004466138921559766  0.9991612640754688  1.0000
  Ir  Ir9       1.0  0.0031419508110111637  0.00750664265208755  0.9994481370340376  1.0000
  Ir  Ir10      1.0  0.0057027142094624485  0.00750664265208755  0.9992893087501198  1.0000
  Ir  Ir11      1.0  0.009297285441100759  0.0025066429954336525  0.999012168177965  1.0000
  Ir  Ir12      1.0  0.004297285404317938  0.0025066429954336525  0.9993122169407161  1.0000
  Ir  Ir13      1.0  0.0007027142876259414  0.00750664265208755  0.9990350766527187  1.0000
  Ir  Ir14      1.0  0.008141950847793985  0.00750664265208755  0.9994305289447958  1.0000
  Ir  Ir15      1.0  0.006858048802769223  0.0025066429954336525  0.9991533886567984  1.0000
  Ir  Ir16      1.0  0.001858049110825343  0.0025066429954336525  0.9991709964618829  1.0000
