data_image0
_chemical_formula_structural       Al4Au8CO
_chemical_formula_sum              "Al4 Au8 C1 O1"
_cell_length_a       4.766690731048584
_cell_length_b       5.129547217399774
_cell_length_c       103.36683654785156
_cell_angle_alpha    90.0
_cell_angle_beta     90.0
_cell_angle_gamma    117.6863273764342

_space_group_name_H-M_alt    "P 1"
_space_group_IT_number       1

loop_
  _space_group_symop_operation_xyz
  'x, y, z'

loop_
  _atom_site_type_symbol
  _atom_site_label
  _atom_site_symmetry_multiplicity
  _atom_site_fract_x
  _atom_site_fract_y
  _atom_site_fract_z
  _atom_site_occupancy
  Al  Al1       1.0  0.005772604568583354  0.00999999970474803  0.9999891362496418  1.0000
  Al  Al2       1.0  0.0007726077242212103  0.009999998884603668  0.9997668157108633  1.0000
  Al  Al3       1.0  0.005772606818868398  1.999999938431081e-10  0.999526704627609  1.0000
  Al  Al4       1.0  0.000772606818868398  1.999999938431081e-10  0.9992961330589007  1.0000
  Au  Au1       1.0  0.007323390812926362  0.0031015549021826284  0.9997568434338625  1.0000
  Au  Au2       1.0  0.002337826904810414  0.003130431775103661  0.0  1.0000
  Au  Au3       1.0  0.009207381183557252  0.006869566904463916  0.0  1.0000
  Au  Au4       1.0  0.004221826145412539  0.006898445007601492  0.9997568428572303  1.0000
  Au  Au5       1.0  0.0073178203106065215  0.0030904271834762405  0.9992961330589007  1.0000
  Au  Au6       1.0  0.0023178203106065214  0.0030904271834762405  0.999526704627609  1.0000
  Au  Au7       1.0  0.00922739308202234  0.006909572726307879  0.999526704627609  1.0000
  Au  Au8       1.0  0.004227393082022341  0.006909572726307879  0.9992961330589007  1.0000
  C   C1        1.0  0.0040552158349325485  0.0015652158875518304  0.00018805359457557585  1.0000
  O   O1        1.0  0.0040552158349325485  0.0015652158875518304  0.00030414522240767943  1.0000
