data_image0
_chemical_formula_structural       HRe16
_chemical_formula_sum              "H1 Re16"
_cell_length_a       5.5646425557307415
_cell_length_b       5.289994444963435
_cell_length_c       107.02996063232422
_cell_angle_alpha    63.46567468972037
_cell_angle_beta     105.246934966322
_cell_angle_gamma    74.75306577207401

_space_group_name_H-M_alt    "P 1"
_space_group_IT_number       1

loop_
  _space_group_symop_operation_xyz
  'x, y, z'

loop_
  _atom_site_type_symbol
  _atom_site_label
  _atom_site_symmetry_multiplicity
  _atom_site_fract_x
  _atom_site_fract_y
  _atom_site_fract_z
  _atom_site_occupancy
  H   H1        1.0  0.004730212923902006  0.0024814941328973055  0.00016149130652431533  1.0000
  Re  Re1       1.0  0.0033333333423257003  0.00958628504238872  0.9992776063385242  1.0000
  Re  Re2       1.0  0.0033333334319086425  0.004586284954698565  0.9995247333377193  1.0000
  Re  Re3       1.0  0.0016666667811132852  0.0004196183245694624  0.9994835456678136  1.0000
  Re  Re4       1.0  0.0016666668224099752  0.00541961852187231  0.9992364186679877  1.0000
  Re  Re5       1.0  0.003279266609773089  0.00966505535423455  0.9997633698772562  1.0000
  Re  Re6       1.0  0.0031460345745372583  0.004741108937408592  6.6946899309605745e-06  1.0000
  Re  Re7       1.0  0.001712205866783527  0.00033494512258066373  0.9999725663445672  1.0000
  Re  Re8       1.0  0.0016666668224099752  0.00541961852187231  0.9997306723927454  1.0000
  Re  Re9       1.0  0.008333332870486694  0.00958628504238872  0.9992776067998662  1.0000
  Re  Re10      1.0  0.008333333653950527  0.004586284954698565  0.9995247332516517  1.0000
  Re  Re11      1.0  0.006666666482744502  0.0004196183245694624  0.9994835455746306  1.0000
  Re  Re12      1.0  0.006666666350570971  0.00541961852187231  0.9992364188508814  1.0000
  Re  Re13      1.0  0.008279266137934085  0.00966505535423455  0.9997633703385983  1.0000
  Re  Re14      1.0  0.008146034102698253  0.004741108937408592  6.694594376160768e-06  1.0000
  Re  Re15      1.0  0.006712205741884966  0.00033494512258066373  0.999972566253756  1.0000
  Re  Re16      1.0  0.006666666350570971  0.00541961852187231  0.9997306722971906  1.0000
