data_image0
_chemical_formula_structural       Si3Pd6Si3Pd6CO
_chemical_formula_sum              "Si6 Pd12 C1 O1"
_cell_length_a       6.576592445373535
_cell_length_b       6.576592405775046
_cell_length_c       98.28600311279297
_cell_angle_alpha    90.0
_cell_angle_beta     90.0
_cell_angle_gamma    120.00000019917724

_space_group_name_H-M_alt    "P 1"
_space_group_IT_number       1

loop_
  _space_group_symop_operation_xyz
  'x, y, z'

loop_
  _atom_site_type_symbol
  _atom_site_label
  _atom_site_symmetry_multiplicity
  _atom_site_fract_x
  _atom_site_fract_y
  _atom_site_fract_z
  _atom_site_occupancy
  Si  Si1       1.0  0.006666722692606818  0.003333389828103247  0.9996410112894636  1.0000
  Si  Si2       1.0  0.0033333895727451876  0.00666672340562515  0.9996410112894636  1.0000
  Si  Si3       1.0  5.610000182357714e-08  5.635000125481056e-08  0.9994611406376637  1.0000
  Pd  Pd1       1.0  0.007346515171113364  0.007346515605617096  0.9996410112894636  1.0000
  Pd  Pd2       1.0  0.002653597317845589  5.635000125481056e-08  0.9996410112894636  1.0000
  Pd  Pd3       1.0  5.615970259052808e-08  0.002653597628111301  0.9996410112894636  1.0000
  Pd  Pd4       1.0  0.00393885426146511  0.003938854406730194  0.9994611406376637  1.0000
  Pd  Pd5       1.0  0.0060612579382551945  5.635000125481056e-08  0.9994611406376637  1.0000
  Pd  Pd6       1.0  5.628542210710446e-08  0.006061258499959939  0.9994611406376637  1.0000
  Si  Si4       1.0  0.006666710218254474  0.003333797644817985  0.9999700891256486  1.0000
  Si  Si5       1.0  0.0033337929034351343  0.006666701167023224  0.9999700891256486  1.0000
  Si  Si6       1.0  2.5700000609593485e-07  2.57950013213885e-07  0.9998299952307553  1.0000
  Pd  Pd7       1.0  0.00723102821651387  0.007231026621354199  0.0  1.0000
  Pd  Pd8       1.0  0.0027693030697052328  3.7905000270665455e-07  0.9999999963613551  1.0000
  Pd  Pd9       1.0  3.8032828496497883e-07  0.00276930605504909  0.9999999963613551  1.0000
  Pd  Pd10      1.0  0.0038812491469076187  0.0038812495599373125  0.9998226903478025  1.0000
  Pd  Pd11      1.0  0.00611895148082815  0.00999994382790784  0.9998226615418633  1.0000
  Pd  Pd12      1.0  0.009999944013837657  0.006118947395586572  0.9998226618450837  1.0000
  C   C1        1.0  0.004444127242117108  1.6134999823081803e-07  0.00011481683488267805  1.0000
  O   O1        1.0  0.004444127242117108  1.6134999823081803e-07  0.0002369091403382081  1.0000
