data_image0
_chemical_formula_structural       COZn12Rh4Zn12Rh4
_chemical_formula_sum              "C1 O1 Zn24 Rh8"
_cell_length_a       9.044642424494386
_cell_length_b       5.307870388031006
_cell_length_c       101.84722137451172
_cell_angle_alpha    90.0
_cell_angle_beta     72.93680968670833
_cell_angle_gamma    72.93680968670833

_space_group_name_H-M_alt    "P 1"
_space_group_IT_number       1

loop_
  _space_group_symop_operation_xyz
  'x, y, z'

loop_
  _atom_site_type_symbol
  _atom_site_label
  _atom_site_symmetry_multiplicity
  _atom_site_fract_x
  _atom_site_fract_y
  _atom_site_fract_z
  _atom_site_occupancy
  C   C1        1.0  0.006878157056944682  0.005330570036296312  0.9999066476417182  1.0000
  O   O1        1.0  0.006878157056944682  0.005330570036296312  2.4471418908612348e-05  1.0000
  Zn  Zn1       1.0  0.006190766341077982  0.009262312879853902  0.999707525542718  1.0000
  Zn  Zn2       1.0  0.00618665632547689  0.004375000790572146  0.9994390813721598  1.0000
  Zn  Zn3       1.0  0.006191378837069642  0.004476308024107446  0.9997074633486638  1.0000
  Zn  Zn4       1.0  0.00618665632547689  0.009375000762498436  0.9994390813721598  1.0000
  Zn  Zn5       1.0  0.008545950595517403  0.0006930305701182456  0.9997773095942563  1.0000
  Zn  Zn6       1.0  0.00868665627115352  0.005625000452775606  0.9995042268374095  1.0000
  Zn  Zn7       1.0  0.001246273729208346  0.0018332328919455582  0.9995616254958907  1.0000
  Zn  Zn8       1.0  0.001144135156130579  0.006925027101800542  0.9998199133588237  1.0000
  Zn  Zn9       1.0  0.0012458792057369998  0.006855109170552947  0.999561645140158  1.0000
  Zn  Zn10      1.0  0.0011429965156701048  0.0018655087102730338  0.9998199079153693  1.0000
  Zn  Zn11      1.0  0.0037920674831985785  0.0030694513589643317  0.9996435297755282  1.0000
  Zn  Zn12      1.0  0.003686656606147632  0.00812500028527855  0.9993739364862477  1.0000
  Rh  Rh1       1.0  0.003686656606147632  0.0031250003133522592  0.9993739364862477  1.0000
  Rh  Rh2       1.0  0.003693652324408617  0.008118488011578332  0.9996384364669789  1.0000
  Rh  Rh3       1.0  0.00868665627115352  0.0006250004808493157  0.9995042268374095  1.0000
  Rh  Rh4       1.0  0.00885700349338379  0.005538797940203144  0.9997484540547693  1.0000
  Zn  Zn13      1.0  0.00618665632547689  0.009375000762498436  0.9991785016002628  1.0000
  Zn  Zn14      1.0  0.00618665632547689  0.004375000790572146  0.9989179215357479  1.0000
  Zn  Zn15      1.0  0.00618665632547689  0.004375000790572146  0.9991785016002628  1.0000
  Zn  Zn16      1.0  0.00618665632547689  0.009375000762498436  0.9989179215357479  1.0000
  Zn  Zn17      1.0  0.00868665627115352  0.0006250004808493157  0.9992436464802766  1.0000
  Zn  Zn18      1.0  0.00868665627115352  0.005625000452775606  0.9989830667083797  1.0000
  Zn  Zn19      1.0  0.0011866566604710018  0.0018750001247667444  0.999048211541719  1.0000
  Zn  Zn20      1.0  0.0011866566604710018  0.006875000623075091  0.9993087916062339  1.0000
  Zn  Zn21      1.0  0.0011866566604710018  0.006875000623075091  0.999048211541719  1.0000
  Zn  Zn22      1.0  0.0011866566604710018  0.0018750001247667444  0.9993087916062339  1.0000
  Zn  Zn23      1.0  0.003686656606147632  0.0031250003133522592  0.9991133567143508  1.0000
  Zn  Zn24      1.0  0.003686656606147632  0.00812500028527855  0.9988527766498358  1.0000
  Rh  Rh5       1.0  0.003686656606147632  0.0031250003133522592  0.9988527766498358  1.0000
  Rh  Rh6       1.0  0.003686656606147632  0.00812500028527855  0.9991133567143508  1.0000
  Rh  Rh7       1.0  0.00868665627115352  0.0006250004808493157  0.9989830667083797  1.0000
  Rh  Rh8       1.0  0.00868665627115352  0.005625000452775606  0.9992436464802766  1.0000
