data_image0
_chemical_formula_structural       COAl8Cu4Al8Cu4
_chemical_formula_sum              "C1 O1 Al16 Cu8"
_cell_length_a       6.136849880218506
_cell_length_b       4.863857746124268
_cell_length_c       106.82109832763672
_cell_angle_alpha    90.0
_cell_angle_beta     90.0
_cell_angle_gamma    90.0

_space_group_name_H-M_alt    "P 1"
_space_group_IT_number       1

loop_
  _space_group_symop_operation_xyz
  'x, y, z'

loop_
  _atom_site_type_symbol
  _atom_site_label
  _atom_site_symmetry_multiplicity
  _atom_site_fract_x
  _atom_site_fract_y
  _atom_site_fract_z
  _atom_site_occupancy
  C   C1        1.0  0.0035865285632988644  0.004999980193498218  0.0001011181676214025  1.0000
  O   O1        1.0  0.0035865285632988644  0.004999980193498218  0.00021345519562353515  1.0000
  Al  Al1       1.0  0.008423889907479517  0.0050000295948657725  0.9992520416584978  1.0000
  Al  Al2       1.0  0.008423889907479517  2.9599998775722395e-08  0.9990709471222401  1.0000
  Al  Al3       1.0  0.0015761160354053063  2.9599998775722395e-08  0.9992520416584978  1.0000
  Al  Al4       1.0  0.0015761160354053063  0.0050000295948657725  0.9990709471222401  1.0000
  Al  Al5       1.0  0.003423889895338793  2.9599998775722395e-08  0.9989647928547298  1.0000
  Al  Al6       1.0  0.003423889895338793  0.0050000295948657725  0.999358195926008  1.0000
  Al  Al7       1.0  0.00657611589578697  0.0050000295948657725  0.9989647928547298  1.0000
  Al  Al8       1.0  0.00657611589578697  2.9599998775722395e-08  0.999358195926008  1.0000
  Cu  Cu1       1.0  0.005000003047321943  0.007500029839957828  0.9991614942508725  1.0000
  Cu  Cu2       1.0  0.005000003047321943  0.002500029541251885  0.9991614942508725  1.0000
  Cu  Cu3       1.0  3.1000000005528537e-09  0.002500029541251885  0.9994487430546405  1.0000
  Cu  Cu4       1.0  3.1000000005528537e-09  0.007500029839957828  0.9994487430546405  1.0000
  Al  Al9       1.0  0.008350447627554729  0.005000114994129065  0.9998186864543571  1.0000
  Al  Al10      1.0  0.008423889907479517  2.9599998775722395e-08  0.999645444729776  1.0000
  Al  Al11      1.0  0.0016494440407572486  0.009999970343861214  0.9998186948241425  1.0000
  Al  Al12      1.0  0.0015761160354053063  0.0050000295948657725  0.999645444729776  1.0000
  Al  Al13      1.0  0.003423889895338793  2.9599998775722395e-08  0.9995392907412586  1.0000
  Al  Al14      1.0  0.0035865285632988644  0.004999980193498218  0.9999389731045538  1.0000
  Al  Al15      1.0  0.00657611589578697  0.0050000295948657725  0.9995392907412586  1.0000
  Al  Al16      1.0  0.006413583155651397  9.399999773088497e-08  0.9999389747785109  1.0000
  Cu  Cu5       1.0  0.005000003047321943  0.007500029839957828  0.9997359924163941  1.0000
  Cu  Cu6       1.0  0.005000003047321943  0.002500029541251885  0.9997359924163941  1.0000
  Cu  Cu7       1.0  0.009999994560955258  0.0024998461051661583  0.0  1.0000
  Cu  Cu8       1.0  0.009999996989100231  0.0075002167226505935  0.9999999888402861  1.0000
