data_image0
_chemical_formula_structural       CONa6Pd12Sn6
_chemical_formula_sum              "C1 O1 Na6 Pd12 Sn6"
_cell_length_a       8.12636409537147
_cell_length_b       6.635148525238037
_cell_length_c       105.73136901855469
_cell_angle_alpha    90.0
_cell_angle_beta     85.652246573041
_cell_angle_gamma    114.09484265249137

_space_group_name_H-M_alt    "P 1"
_space_group_IT_number       1

loop_
  _space_group_symop_operation_xyz
  'x, y, z'

loop_
  _atom_site_type_symbol
  _atom_site_label
  _atom_site_symmetry_multiplicity
  _atom_site_fract_x
  _atom_site_fract_y
  _atom_site_fract_z
  _atom_site_occupancy
  C   C1        1.0  0.0023325697906855106  0.007632976279192387  9.323480172811396e-05  1.0000
  O   O1        1.0  0.0023325697906855106  0.007632976279192387  0.0002067296408230701  1.0000
  Na  Na1       1.0  0.0038544389789338723  0.0019791666901036384  0.9994865867489661  1.0000
  Na  Na2       1.0  0.0055875750043102865  0.00785104137776272  0.9997834717387495  1.0000
  Na  Na3       1.0  0.002187772355939833  0.006145833247894526  0.9992049660497906  1.0000
  Na  Na4       1.0  0.009687772537349206  0.004895833469311305  0.9996273969843679  1.0000
  Na  Na5       1.0  0.0003122277045299581  0.0002142276546565473  0.999998180763082  1.0000
  Na  Na6       1.0  0.008021105662397703  0.009062499901123462  0.9993457762866603  1.0000
  Pd  Pd1       1.0  0.005104439009168768  0.00010416679908815938  0.9992753711682254  1.0000
  Pd  Pd2       1.0  0.006771105884120271  0.00593750018041912  0.9995569918659329  1.0000
  Pd  Pd3       1.0  0.008547254827892009  0.0020253777390468043  0.9998244663946414  1.0000
  Pd  Pd4       1.0  0.008549516398085117  0.006636028461922352  0.9998243596370178  1.0000
  Pd  Pd5       1.0  0.005104439009168768  0.005104166742943368  0.9992753711682254  1.0000
  Pd  Pd6       1.0  0.006771105884120271  0.0009375002365639108  0.9995569918659329  1.0000
  Pd  Pd7       1.0  0.0037817940991191146  0.004131360143701706  0.9999497752158049  1.0000
  Pd  Pd8       1.0  0.0009377723257049374  0.003020833401211452  0.9994161816305311  1.0000
  Pd  Pd9       1.0  0.0025355799817319952  0.00889989565320745  0.9997013351027174  1.0000
  Pd  Pd10      1.0  0.002537882620991667  0.0037438183129784213  0.9997009862627887  1.0000
  Pd  Pd11      1.0  0.003781216360655122  0.00976569165640341  0.9999496010050403  1.0000
  Pd  Pd12      1.0  0.0009377723257049374  0.00802083334506666  0.9994161816305311  1.0000
  Sn  Sn1       1.0  0.0038544389789338723  0.006979166559391546  0.9994865867489661  1.0000
  Sn  Sn2       1.0  0.005595608919994047  0.002856766461052018  0.9997643007269003  1.0000
  Sn  Sn3       1.0  0.002187772355939833  0.0011458333786066185  0.9992049660497906  1.0000
  Sn  Sn4       1.0  0.009687772537349206  0.009895833338599211  0.9996273969843679  1.0000
  Sn  Sn5       1.0  0.0012730614449190506  0.005694830575530852  0.9999081002015763  1.0000
  Sn  Sn6       1.0  0.008021105662397703  0.004062500080084984  0.9993457762866603  1.0000
