data_image0
_chemical_formula_structural       HRe6Os2Re6Os2Re6Os2Re6Os2
_chemical_formula_sum              "H1 Re24 Os8"
_cell_length_a       5.565713480474915
_cell_length_b       8.877437591552734
_cell_length_c       31.040006637573242
_cell_angle_alpha    90.0
_cell_angle_beta     119.99999955503634
_cell_angle_gamma    90.0

_space_group_name_H-M_alt    "P 1"
_space_group_IT_number       1

loop_
  _space_group_symop_operation_xyz
  'x, y, z'

loop_
  _atom_site_type_symbol
  _atom_site_label
  _atom_site_symmetry_multiplicity
  _atom_site_fract_x
  _atom_site_fract_y
  _atom_site_fract_z
  _atom_site_occupancy
  H   H1        1.0  0.004971059628544684  0.003749987293429092  0.0007678393032862105  1.0000
  Re  Re1       1.0  0.003220047336857078  0.0037500036592238543  0.9994264292028068  1.0000
  Re  Re2       1.0  0.008070143698156855  0.0037499898112436708  0.0002464756461311897  1.0000
  Re  Re3       1.0  0.008343753425377133  0.0037500091144887756  0.9994264414014017  1.0000
  Re  Re4       1.0  0.0066908288791889025  0.0012499911834526164  0.9988497224915078  1.0000
  Re  Re5       1.0  0.0016535239098990778  0.0012500035627076292  0.9997391864266085  1.0000
  Re  Re6       1.0  0.001657770465552528  0.0012499911834526164  0.9988497222214163  1.0000
  Os  Os1       1.0  0.006777548422466675  0.001250006500157971  0.9997837631051587  1.0000
  Os  Os2       1.0  0.003174344597984879  0.003749987293429092  0.000284592276176276  1.0000
  Re  Re7       1.0  0.003313417846496806  0.0037499910701509604  0.9976503858388084  1.0000
  Re  Re8       1.0  0.00834647626013318  0.0037499910701509604  0.9985528521326467  1.0000
  Re  Re9       1.0  0.00834647626013318  0.0037499910701509604  0.9976503858688685  1.0000
  Re  Re10      1.0  0.0066908288791889025  0.0012499911834526164  0.9970566448816837  1.0000
  Re  Re11      1.0  0.001657770465552528  0.0012499911834526164  0.997947255957638  1.0000
  Re  Re12      1.0  0.001657770465552528  0.0012499911834526164  0.9970566450916553  1.0000
  Os  Os3       1.0  0.006668789607005121  0.0012499911834526164  0.9979512076605489  1.0000
  Os  Os4       1.0  0.0033354567322436365  0.0037499910701509604  0.9985489003950903  1.0000
  Re  Re13      1.0  0.003220047336857078  0.008750004062074187  0.9994264292028068  1.0000
  Re  Re14      1.0  0.008070143698156855  0.00874998979445824  0.0002464756461311897  1.0000
  Re  Re15      1.0  0.008343753425377133  0.008750009097703345  0.9994264414014017  1.0000
  Re  Re16      1.0  0.0066908288791889025  0.006249991271576127  0.9988497224915078  1.0000
  Re  Re17      1.0  0.0016535239098990778  0.0062500038606490204  0.9997391864266085  1.0000
  Re  Re18      1.0  0.001657770465552528  0.006249991271576127  0.9988497222214163  1.0000
  Os  Os5       1.0  0.006777548422466675  0.006250006798099362  0.9997837631051587  1.0000
  Os  Os6       1.0  0.003174344597984879  0.008749987276643662  0.000284592276176276  1.0000
  Re  Re19      1.0  0.003313417846496806  0.008749991473001293  0.9976503858388084  1.0000
  Re  Re20      1.0  0.00834647626013318  0.008749991473001293  0.9985528521326467  1.0000
  Re  Re21      1.0  0.00834647626013318  0.008749991473001293  0.9976503858688685  1.0000
  Re  Re22      1.0  0.0066908288791889025  0.006249991271576127  0.9970566448816837  1.0000
  Re  Re23      1.0  0.001657770465552528  0.006249991271576127  0.997947255957638  1.0000
  Re  Re24      1.0  0.001657770465552528  0.006249991271576127  0.9970566450916553  1.0000
  Os  Os7       1.0  0.006668789607005121  0.006249991271576127  0.9979512076605489  1.0000
  Os  Os8       1.0  0.0033354567322436365  0.008749991473001293  0.9985489003950903  1.0000
