data_image0
_chemical_formula_structural       COAu10Ca20Pd10
_chemical_formula_sum              "C1 O1 Au10 Ca20 Pd10"
_cell_length_a       5.165112018585205
_cell_length_b       15.49533663648719
_cell_length_c       106.88627624511719
_cell_angle_alpha    98.04946727166718
_cell_angle_beta     90.0
_cell_angle_gamma    90.0

_space_group_name_H-M_alt    "P 1"
_space_group_IT_number       1

loop_
  _space_group_symop_operation_xyz
  'x, y, z'

loop_
  _atom_site_type_symbol
  _atom_site_label
  _atom_site_symmetry_multiplicity
  _atom_site_fract_x
  _atom_site_fract_y
  _atom_site_fract_z
  _atom_site_occupancy
  C   C1        1.0  0.004999990984488127  0.0097748847662739  0.00019842922797649754  1.0000
  O   O1        1.0  0.004999990984488127  0.0097748847662739  0.00031069831190618733  1.0000
  Au  Au1       1.0  6.00000045683179e-10  0.00983333299664252  0.999825741219502  1.0000
  Au  Au2       1.0  6.00000045683179e-10  0.0051666667119904305  0.9995956761551195  1.0000
  Au  Au3       1.0  0.009999995672554302  0.004578971115346855  3.952132100423944e-05  1.0000
  Au  Au4       1.0  6.00000045683179e-10  0.0005000000631295277  0.9993656105256981  1.0000
  Au  Au5       1.0  6.00000045683179e-10  0.005833333462829801  0.9991355448303451  1.0000
  Au  Au6       1.0  0.00500000072124095  0.002499999951438825  0.999710708722741  1.0000
  Au  Au7       1.0  0.00500000072124095  0.00783333322973616  0.9994806430249235  1.0000
  Au  Au8       1.0  0.005000000360620475  0.0071889769395799535  0.9999349877550686  1.0000
  Au  Au9       1.0  0.00500000072124095  0.003166666702278195  0.9992505776767894  1.0000
  Au  Au10      1.0  0.00500000072124095  0.008500000466187282  0.9990205119888297  1.0000
  Ca  Ca1       1.0  0.00500000072124095  0.00933333354052768  0.9993080940542595  1.0000
  Ca  Ca2       1.0  0.00500000072124095  0.00466666677026384  0.9990780284223736  1.0000
  Ca  Ca3       1.0  0.00500000072124095  0.00400000001942447  0.9995381594683252  1.0000
  Ca  Ca4       1.0  0.004999995672554301  0.00327770377162604  3.2655066295390138e-06  1.0000
  Ca  Ca5       1.0  0.00500000072124095  0.008666666304076559  0.9997682250903532  1.0000
  Ca  Ca6       1.0  6.00000045683179e-10  0.009666667158753242  0.9990780283968012  1.0000
  Ca  Ca7       1.0  0.01  0.008352849422129787  5.508333566497153e-06  1.0000
  Ca  Ca8       1.0  6.00000045683179e-10  0.0043333331520382795  0.9993080938010092  1.0000
  Ca  Ca9       1.0  6.00000045683179e-10  0.003666666644004785  0.9997682248518898  1.0000
  Ca  Ca10      1.0  6.00000045683179e-10  0.00899999992230212  0.9995381597117177  1.0000
  Ca  Ca11      1.0  6.00000045683179e-10  0.0013333333802758027  0.9996531920384113  1.0000
  Ca  Ca12      1.0  6.00000045683179e-10  0.0066666665371702  0.9994231266169521  1.0000
  Ca  Ca13      1.0  0.01  0.006021355534311229  0.9998715662977014  1.0000
  Ca  Ca14      1.0  6.00000045683179e-10  0.002000000009712235  0.9991930612688179  1.0000
  Ca  Ca15      1.0  0.00999999783627715  0.0008016918266647316  0.00010060029604849565  1.0000
  Ca  Ca16      1.0  0.00500000072124095  0.00166666663429255  0.9994231266523823  1.0000
  Ca  Ca17      1.0  0.00500000072124095  0.007000000155395761  0.9991930612383165  1.0000
  Ca  Ca18      1.0  0.00500000072124095  0.00633333340455639  0.9996531922842682  1.0000
  Ca  Ca19      1.0  0.004999996754415726  0.005737934063092543  9.823335506545067e-05  1.0000
  Ca  Ca20      1.0  0.004999995311933826  0.0009932198328850685  0.9998710088414193  1.0000
  Pd  Pd1       1.0  0.009999992066349552  0.0021573064095156908  0.999930291633893  1.0000
  Pd  Pd2       1.0  6.00000045683179e-10  0.007500000097122351  0.9997107089710624  1.0000
  Pd  Pd3       1.0  6.00000045683179e-10  0.0035000000776978803  0.9990205120144021  1.0000
  Pd  Pd4       1.0  6.00000045683179e-10  0.0028333333268585103  0.9994806433391765  1.0000
  Pd  Pd5       1.0  6.00000045683179e-10  0.008166666847961721  0.999250577646288  1.0000
  Pd  Pd6       1.0  0.00500000072124095  0.0001666666573591081  0.9995956759086464  1.0000
  Pd  Pd7       1.0  0.00500000072124095  0.005500000330215991  0.9993656102188384  1.0000
  Pd  Pd8       1.0  0.00500000072124095  0.004833333579376621  0.9998257415436128  1.0000
  Pd  Pd9       1.0  0.00500000072124095  0.0008333333778477439  0.9991355448620787  1.0000
  Pd  Pd10      1.0  0.004999990984488127  0.009616805515368487  3.477058413742681e-05  1.0000
