data_image0
_chemical_formula_structural       COTe18
_chemical_formula_sum              "C1 O1 Te18"
_cell_length_a       6.018202304840088
_cell_length_b       12.055411044898406
_cell_length_c       101.89562225341797
_cell_angle_alpha    79.10660525000192
_cell_angle_beta     90.0
_cell_angle_gamma    90.0

_space_group_name_H-M_alt    "P 1"
_space_group_IT_number       1

loop_
  _space_group_symop_operation_xyz
  'x, y, z'

loop_
  _atom_site_type_symbol
  _atom_site_label
  _atom_site_symmetry_multiplicity
  _atom_site_fract_x
  _atom_site_fract_y
  _atom_site_fract_z
  _atom_site_occupancy
  C   C1        1.0  0.0061111110148216255  0.007607918627947762  0.9999938490359287  1.0000
  O   O1        1.0  0.0061111110148216255  0.007607918627947762  0.00011161626133716629  1.0000
  Te  Te1       1.0  0.008333333539667944  0.008011418940718894  0.9991501125939176  1.0000
  Te  Te2       1.0  0.008333333539667944  0.004678085901091014  0.999001054184029  1.0000
  Te  Te3       1.0  0.008333333539667944  0.0013447523894365126  0.9992991709127653  1.0000
  Te  Te4       1.0  0.005000000061900383  0.006218415754803544  0.9991902019006986  1.0000
  Te  Te5       1.0  0.005000000061900383  0.00288508240049125  0.9990411434978459  1.0000
  Te  Te6       1.0  0.005000000061900383  0.009551749423800252  0.9993392602965153  1.0000
  Te  Te7       1.0  0.0016666667388837806  0.007114917662445632  0.9993505591206393  1.0000
  Te  Te8       1.0  0.0016666667388837806  0.003781583993448925  0.9992015007248225  1.0000
  Te  Te9       1.0  0.0016666667388837806  0.0004482507964788375  0.9990524423184519  1.0000
  Te  Te10      1.0  0.008333333539667944  0.008011418940718894  0.9995972874295098  1.0000
  Te  Te11      1.0  0.008333333539667944  0.004678085901091014  0.9994482293121001  1.0000
  Te  Te12      1.0  0.008333333539667944  0.0013447523894365126  0.9997463457483575  1.0000
  Te  Te13      1.0  0.005000000061900383  0.006218415754803544  0.9996373767362908  1.0000
  Te  Te14      1.0  0.005000000061900383  0.00288508240049125  0.999488318625917  1.0000
  Te  Te15      1.0  0.005000000061900383  0.009551749423800252  0.9997864348396286  1.0000
  Te  Te16      1.0  0.0016666667388837806  0.007114917662445632  0.9997977342487104  1.0000
  Te  Te17      1.0  0.0016666667388837806  0.003781583993448925  0.9996486755604148  1.0000
  Te  Te18      1.0  0.0016666667388837806  0.0004482507964788375  0.999499617446523  1.0000
