data_image0
_chemical_formula_structural       HGa12Au12
_chemical_formula_sum              "H1 Ga12 Au12"
_cell_length_a       7.392222735556243
_cell_length_b       7.394822197022004
_cell_length_c       109.13665008544922
_cell_angle_alpha    67.67266853513262
_cell_angle_beta     67.6973141172596
_cell_angle_gamma    75.59559215607737

_space_group_name_H-M_alt    "P 1"
_space_group_IT_number       1

loop_
  _space_group_symop_operation_xyz
  'x, y, z'

loop_
  _atom_site_type_symbol
  _atom_site_label
  _atom_site_symmetry_multiplicity
  _atom_site_fract_x
  _atom_site_fract_y
  _atom_site_fract_z
  _atom_site_occupancy
  H   H1        1.0  0.0074363774807688745  0.009479499040235654  0.9997389535150674  1.0000
  Ga  Ga1       1.0  0.0022910057311527447  0.00846060431616527  0.9995625332017289  1.0000
  Ga  Ga2       1.0  0.0057365705776270355  0.0016802526466388583  0.9992618206890814  1.0000
  Ga  Ga3       1.0  0.009069903843347299  0.005013586236038116  0.9989629853310191  1.0000
  Ga  Ga4       1.0  0.0007432018196961988  0.00455431261400055  0.9995878565663652  1.0000
  Ga  Ga5       1.0  0.004263429405955289  0.008105789129624024  0.9992575528705447  1.0000
  Ga  Ga6       1.0  0.007596762649908718  0.00143912236236003  0.9989587175222228  1.0000
  Ga  Ga7       1.0  0.006425532079232902  0.003537557869435527  0.9995237245041536  1.0000
  Ga  Ga8       1.0  0.009722739394179771  0.007187167809335245  0.9992163756037011  1.0000
  Ga  Ga9       1.0  0.003056073323594555  0.0005205013164275977  0.9989175401214679  1.0000
  Ga  Ga10      1.0  0.006923643541851326  0.00913131943629911  0.9996236387476498  1.0000
  Ga  Ga11      1.0  0.00027726007824353886  0.0025988736925712905  0.9993029985222734  1.0000
  Ga  Ga12      1.0  0.0036105933774996045  0.005932207007614201  0.9990041631704113  1.0000
  Au  Au1       1.0  0.006972963279860922  0.00530503662942561  0.9996842044302435  1.0000
  Au  Au2       1.0  0.00039394350246519527  0.008484370709066736  0.9993928441265381  1.0000
  Au  Au3       1.0  0.0037272767631865247  0.0018177038046245683  0.9990940087813162  1.0000
  Au  Au4       1.0  0.006272722642165183  0.00796833824599466  0.9994253647861111  1.0000
  Au  Au5       1.0  0.009606056447581326  0.0013016713415524934  0.999126529426888  1.0000
  Au  Au6       1.0  0.0031783429170840214  0.004846898842663966  0.9996923753370693  1.0000
  Au  Au7       1.0  0.009572433769825042  0.0014532585731310231  0.9995839629142741  1.0000
  Au  Au8       1.0  0.0028882945512611106  0.004737195262528735  0.9992805280831121  1.0000
  Au  Au9       1.0  0.006221627884052978  0.008070528303215299  0.9989816927374501  1.0000
  Au  Au10      1.0  0.003737839367587023  0.0014593837157524266  0.9995580065344489  1.0000
  Au  Au11      1.0  0.007111705365249611  0.005048847062446841  0.9992388460102607  1.0000
  Au  Au12      1.0  0.00044503887234381906  0.008382180103133404  0.9989400105508889  1.0000
