data_image0
_chemical_formula_structural       COV12Sb24
_chemical_formula_sum              "C1 O1 V12 Sb24"
_cell_length_a       6.638558387756348
_cell_length_b       13.078954943695095
_cell_length_c       104.8293228149414
_cell_angle_alpha    80.179621045194
_cell_angle_beta     90.0
_cell_angle_gamma    90.0

_space_group_name_H-M_alt    "P 1"
_space_group_IT_number       1

loop_
  _space_group_symop_operation_xyz
  'x, y, z'

loop_
  _atom_site_type_symbol
  _atom_site_label
  _atom_site_symmetry_multiplicity
  _atom_site_fract_x
  _atom_site_fract_y
  _atom_site_fract_z
  _atom_site_occupancy
  C   C1        1.0  0.009955626602043117  0.008132623215215616  0.9998678908420485  1.0000
  O   O1        1.0  0.009955626602043117  0.008132623215215616  0.9999823622932782  1.0000
  V   V1        1.0  0.005044372993922023  0.009165679207829427  0.9993741664789437  1.0000
  V   V2        1.0  0.005032681235134211  0.0025213284009370897  0.9996435266064032  1.0000
  V   V3        1.0  0.005044372993922023  0.00583234598241425  0.999097292995625  1.0000
  V   V4        1.0  0.005044372993922023  0.0008323459997582387  0.9995126027164323  1.0000
  V   V5        1.0  0.005235630751570923  0.0042032293957846205  0.9997568368073186  1.0000
  V   V6        1.0  0.005044372993922023  0.007499012595121838  0.9992357297372844  1.0000
  V   V7        1.0  4.437304968725098e-05  0.002499012756999072  0.9992357294836611  1.0000
  V   V8        1.0  4.437304968725098e-05  0.00583234598241425  0.9995126029669799  1.0000
  V   V9        1.0  0.009854212729633662  0.009203013301239585  0.9997568791827206  1.0000
  V   V10       1.0  4.437304968725098e-05  0.0008323459997582387  0.9990972930293712  1.0000
  V   V11       1.0  4.437304968725098e-05  0.0041656793697066605  0.9993741662253205  1.0000
  V   V12       1.0  5.704105069326187e-05  0.00752069720691285  0.9996435368767347  1.0000
  Sb  Sb1       1.0  0.001613458223441837  0.0005220411085316925  0.9993564972294845  1.0000
  Sb  Sb2       1.0  0.0015097371436286829  0.0038157357663475473  0.9996623678244053  1.0000
  Sb  Sb3       1.0  0.001613458223441837  0.007188707812295226  0.9990796236794424  1.0000
  Sb  Sb4       1.0  0.003578856904661277  0.008815508687275903  0.9996622296227242  1.0000
  Sb  Sb5       1.0  0.003475287899080496  0.0021887078296392148  0.9990796237131885  1.0000
  Sb  Sb6       1.0  0.003475287899080496  0.005522041199587637  0.9993564969091379  1.0000
  Sb  Sb7       1.0  0.003475287899080496  0.00947598399065604  0.9991149619968435  1.0000
  Sb  Sb8       1.0  0.003475287899080496  0.002809317539825685  0.9993918355415032  1.0000
  Sb  Sb9       1.0  0.0033135297367143644  0.006139243827593309  0.9996786931414132  1.0000
  Sb  Sb10      1.0  0.001613458223441837  0.007809317377948451  0.999391835226539  1.0000
  Sb  Sb11      1.0  0.0017752511776987698  0.0011387978153436975  0.9996786330146054  1.0000
  Sb  Sb12      1.0  0.001613458223441837  0.004475984152533273  0.9991149623118077  1.0000
  Sb  Sb13      1.0  0.00661345808876355  0.007188707812295226  0.9994949336507972  1.0000
  Sb  Sb14      1.0  0.006549586350007248  0.0005788375066933924  0.9997745076244605  1.0000
  Sb  Sb15      1.0  0.00661345808876355  0.0038553742978135585  0.9992180604579235  1.0000
  Sb  Sb16      1.0  0.00847528776440221  0.008855374425002815  0.9992180604211017  1.0000
  Sb  Sb17      1.0  0.00847528776440221  0.0021887078296392148  0.9994949334002496  1.0000
  Sb  Sb18      1.0  0.008539179704901558  0.005578259428636634  0.9997744496711677  1.0000
  Sb  Sb19      1.0  0.008408924477336913  0.00947795889291364  0.9995235069638405  1.0000
  Sb  Sb20      1.0  0.007845010777315666  0.002716877545218879  0.999835969848339  1.0000
  Sb  Sb21      1.0  0.00847528776440221  0.006142650765240862  0.9992533990534671  1.0000
  Sb  Sb22      1.0  0.00661345808876355  0.0011426509993847185  0.999253398798306  1.0000
  Sb  Sb23      1.0  0.0066798730025055195  0.00447754511157763  0.9995233841751258  1.0000
  Sb  Sb24      1.0  0.007241745765319602  0.007717583861842461  0.9998357714144769  1.0000
