data_image0
_chemical_formula_structural       HAl54Co12
_chemical_formula_sum              "H1 Al54 Co12"
_cell_length_a       8.823014726111204
_cell_length_b       10.988220282239666
_cell_length_c       105.76170349121094
_cell_angle_alpha    74.56669957768031
_cell_angle_beta     86.99864052757572
_cell_angle_gamma    63.70900025123486

_space_group_name_H-M_alt    "P 1"
_space_group_IT_number       1

loop_
  _space_group_symop_operation_xyz
  'x, y, z'

loop_
  _atom_site_type_symbol
  _atom_site_label
  _atom_site_symmetry_multiplicity
  _atom_site_fract_x
  _atom_site_fract_y
  _atom_site_fract_z
  _atom_site_occupancy
  H   H1        1.0  0.004059292203565667  0.002213463535888708  0.9998923373564315  1.0000
  Al  Al1       1.0  0.006673929868852216  0.0066898353679792745  0.9989031825549223  1.0000
  Al  Al2       1.0  7.264048482849395e-06  2.3168449910197953e-05  0.9996545934221794  1.0000
  Al  Al3       1.0  0.003340597078877281  0.003356501757010592  0.999278887710439  1.0000
  Al  Al4       1.0  0.008340597002368052  0.008356501584143299  0.99927888773246  1.0000
  Al  Al5       1.0  0.0016739305786484103  0.0016898351479663564  0.9989031828227851  1.0000
  Al  Al6       1.0  0.005007264001910311  0.005023168366054828  0.9996545934416087  1.0000
  Al  Al7       1.0  0.0008714301415566529  0.003900065279718641  0.9995190584109305  1.0000
  Al  Al8       1.0  0.004204763353416473  0.007233398497807112  0.9991433532644334  1.0000
  Al  Al9       1.0  0.007538096597106113  0.0005667317669700113  0.9987676476880682  1.0000
  Al  Al10      1.0  0.007025327956740604  0.004705156586714056  0.9993890004152256  1.0000
  Al  Al11      1.0  0.00035866165997252295  0.008038490197682739  0.9990132950866473  1.0000
  Al  Al12      1.0  0.0036919951141449678  0.0013718230739654263  0.9997647055682567  1.0000
  Al  Al13      1.0  0.002476430298002684  0.009479605456239907  0.9994144225748074  1.0000
  Al  Al14      1.0  0.005809764439921342  0.002812938627182754  0.9990387175608092  1.0000
  Al  Al15      1.0  0.009143097440379083  0.0061462718452712254  0.9997901278996921  1.0000
  Al  Al16      1.0  0.006322531991446633  0.008674513756364282  0.9995444807525935  1.0000
  Al  Al17      1.0  0.00965586518251557  0.002007847123747234  0.9991687751737426  1.0000
  Al  Al18      1.0  0.002989199413793052  0.00534118053827581  0.9987930701300763  1.0000
  Al  Al19      1.0  0.007549331866543603  0.006960314534993771  0.9991311219527861  1.0000
  Al  Al20      1.0  0.0008826656791574819  0.00029364746038648546  0.9987554164961554  1.0000
  Al  Al21      1.0  0.004215998653764509  0.003626980924025089  0.9995068271101497  1.0000
  Al  Al22      1.0  0.007995493525480074  0.002820873432363955  0.9996443921480561  1.0000
  Al  Al23      1.0  0.0013288273339533956  0.006154206846892532  0.9992686868244492  1.0000
  Al  Al24      1.0  0.004662160334411137  0.009487540064981004  0.9988929816788756  1.0000
  Al  Al25      1.0  0.005798528716769147  0.006419356200964778  0.9998023592013964  1.0000
  Al  Al26      1.0  0.009131862562835208  0.009752689419053249  0.999426654052129  1.0000
  Al  Al27      1.0  0.0024651953987486494  0.0030860227864362008  0.9990509488693319  1.0000
  Al  Al28      1.0  0.005352366718559764  0.0005587968635687574  0.9992890891550322  1.0000
  Al  Al29      1.0  0.008685699613776101  0.003892130278097334  0.998913384004487  1.0000
  Al  Al30      1.0  0.00201903331700802  0.007225463889066017  0.9996647941603651  1.0000
  Al  Al31      1.0  0.003326069228529328  0.00140130627829869  0.9994966274668898  1.0000
  Al  Al32      1.0  0.006659402441308423  0.004734639889267372  0.9991209223095262  1.0000
  Al  Al33      1.0  0.009992735652248971  0.008067972714475633  0.9987452168921082  1.0000
  Al  Al34      1.0  0.00757819151759035  0.005700164223299584  0.999580921850344  1.0000
  Al  Al35      1.0  0.0009115247980181108  0.009033497834268265  0.9992052165236124  1.0000
  Al  Al36      1.0  0.004244858304811256  0.0023668306123309016  0.9988295112414636  1.0000
  Al  Al37      1.0  2.179203446853259e-05  0.0019783640176340225  0.9994368536626753  1.0000
  Al  Al38      1.0  0.003355125352029393  0.005311697235722494  0.9990611485157165  1.0000
  Al  Al39      1.0  0.0066884583524871345  0.008645030453810966  0.9998125588545994  1.0000
  Al  Al40      1.0  0.005769669276205206  0.007679506119778754  0.9993525593137815  1.0000
  Al  Al41      1.0  0.009103002414653442  0.0010128395853817582  0.9989768540142322  1.0000
  Al  Al42      1.0  0.0024363358529433062  0.004346172901690282  0.999728264461202  1.0000
  Al  Al43      1.0  0.009901152310142798  0.004216498073491455  0.9992315431203692  1.0000
  Al  Al44      1.0  0.0032344853782492037  0.007549831291579927  0.9988558378054276  1.0000
  Al  Al45      1.0  0.006567818886880897  0.0008831648554029842  0.9996072482677898  1.0000
  Al  Al46      1.0  0.0033007088330375294  0.006736172445823516  0.9994119313016384  1.0000
  Al  Al47      1.0  0.006634042270766004  6.95053527999705e-05  0.9990362262980145  1.0000
  Al  Al48      1.0  0.00996737555260977  0.0034028388348548333  0.99978763662837  1.0000
  Al  Al49      1.0  0.003446708694135566  0.00916317187670667  0.9997019380536994  1.0000
  Al  Al50      1.0  0.006780041779963099  0.0024965054405297286  0.9993262330334518  1.0000
  Al  Al51      1.0  0.00011337548227574487  0.005829838658618199  0.9989505277157399  1.0000
  Al  Al52      1.0  4.7152240728046124e-05  0.006643498290135033  0.9995215496813292  1.0000
  Al  Al53      1.0  0.003380485241185788  0.009976831508223503  0.9991458445357555  1.0000
  Al  Al54      1.0  0.006713818327013322  0.0033101650720465613  0.9987701392337205  1.0000
  Co  Co1       1.0  0.008806249353135938  0.005972614863212814  0.999359930418894  1.0000
  Co  Co2       1.0  0.0021395830563678583  0.009305948474181496  0.9989842256538906  1.0000
  Co  Co3       1.0  0.005472916035115441  0.002639281448684237  0.9997356361348609  1.0000
  Co  Co4       1.0  0.004454517501637435  0.004950602605325087  0.9992868631129075  1.0000
  Co  Co5       1.0  0.007787850502095176  0.008283935823413559  0.9989111579673338  1.0000
  Co  Co6       1.0  0.0011211844476397188  0.0016172690925764573  0.9996625688304368  1.0000
  Co  Co7       1.0  0.004541611440659618  0.007407055479865523  0.9995735507452316  1.0000
  Co  Co8       1.0  0.007874944631728555  0.0007403888472484756  0.9991978451663805  1.0000
  Co  Co9       1.0  0.0012082782287997978  0.004073722261777052  0.9988221401254845  1.0000
  Co  Co10      1.0  0.008893343081675316  0.008429068130633462  0.999646618041275  1.0000
  Co  Co11      1.0  0.0022266767622778033  0.0017624011051362027  0.9992709123020757  1.0000
  Co  Co12      1.0  0.005560009446092062  0.005095734519664779  0.9988952071524538  1.0000
