data_image0
_chemical_formula_structural       COGa18Ni30
_chemical_formula_sum              "C1 O1 Ga18 Ni30"
_cell_length_a       8.49934936503773
_cell_length_b       10.191983877494614
_cell_length_c       98.91131591796875
_cell_angle_alpha    89.54242447040801
_cell_angle_beta     86.87569465767716
_cell_angle_gamma    70.7609542001268

_space_group_name_H-M_alt    "P 1"
_space_group_IT_number       1

loop_
  _space_group_symop_operation_xyz
  'x, y, z'

loop_
  _atom_site_type_symbol
  _atom_site_label
  _atom_site_symmetry_multiplicity
  _atom_site_fract_x
  _atom_site_fract_y
  _atom_site_fract_z
  _atom_site_occupancy
  C   C1        1.0  0.0036956610224712486  0.006870588364576228  0.00014766871913285428  1.0000
  O   O1        1.0  0.0036956610224712486  0.006870588364576228  0.0002689891626299599  1.0000
  Ga  Ga1       1.0  0.008253850521886347  0.0018907939787875779  0.9998543208451548  1.0000
  Ga  Ga2       1.0  0.007420517421509612  0.009390793715522852  0.9996107415257317  1.0000
  Ga  Ga3       1.0  0.006587184131127795  0.006890793932329097  0.9993671620297877  1.0000
  Ga  Ga4       1.0  0.0034128166193123145  0.0004838033299382714  0.9997172352121783  1.0000
  Ga  Ga5       1.0  0.002579483222842906  0.00798380326025055  0.9994736558939826  1.0000
  Ga  Ga6       1.0  0.0042461500525569  0.0029838033067090307  0.9999608150085975  1.0000
  Ga  Ga7       1.0  0.005833333660418303  0.006187298704692946  0.9997857779660606  1.0000
  Ga  Ga8       1.0  0.005000000084310949  0.0036872985343451817  0.9995421987730768  1.0000
  Ga  Ga9       1.0  0.004166666832236608  0.0011872986543629246  0.9992986192770329  1.0000
  Ga  Ga10      1.0  0.002003850356489134  0.00314079406396146  0.9994889516669162  1.0000
  Ga  Ga11      1.0  0.0036705169268856316  0.008140794211079983  0.999976110658375  1.0000
  Ga  Ga12      1.0  0.00283718378973372  0.00564079404073222  0.9997325311620319  1.0000
  Ga  Ga13      1.0  0.007996149954995533  0.0042338031983059085  0.9995954455771056  1.0000
  Ga  Ga14      1.0  0.0071628166646137146  0.0017338034151121535  0.9993518660811614  1.0000
  Ga  Ga15      1.0  0.00882948324537735  0.006733802981499663  0.9998390247717461  1.0000
  Ga  Ga16      1.0  0.0012499999623945958  0.0024372986427483043  0.9999075679042931  1.0000
  Ga  Ga17      1.0  0.00041666648931023404  0.009937298766637587  0.9996639882849935  1.0000
  Ga  Ga18      1.0  0.009583333409627028  0.007437298983443833  0.9994204088362713  1.0000
  Ni  Ni1       1.0  0.00579153258624955  0.003812701202390092  0.9997735598392196  1.0000
  Ni  Ni2       1.0  0.004958199334175209  0.001312701322407835  0.9995299803431758  1.0000
  Ni  Ni3       1.0  0.0041248656033056495  0.00881270154308562  0.9992864010263073  1.0000
  Ni  Ni4       1.0  0.005041801158479702  0.006061896036648036  0.9995544168999179  1.0000
  Ni  Ni5       1.0  0.004208467582372348  0.003561895866300272  0.9993108374056305  1.0000
  Ni  Ni6       1.0  0.0058751342956316135  0.0085618962069958  0.9997979963962609  1.0000
  Ni  Ni7       1.0  0.008541667245972339  0.004312298673720625  0.9998466728065942  1.0000
  Ni  Ni8       1.0  0.007708333154294588  0.0018122986969498658  0.9996030936158656  1.0000
  Ni  Ni9       1.0  0.006875000130532807  0.009312298240108135  0.9993595139949396  1.0000
  Ni  Ni10      1.0  0.00416666681231672  0.006187298704692946  0.9992986190642893  1.0000
  Ni  Ni11      1.0  0.005833333680338192  0.0011872986543629246  0.9997857781788043  1.0000
  Ni  Ni12      1.0  0.00500000054165398  0.008687298487886701  0.9995421985581775  1.0000
  Ni  Ni13      1.0  0.007708333249297129  0.00681229845691438  0.9996030934028226  1.0000
  Ni  Ni14      1.0  0.006874999958915311  0.004312298673720625  0.9993595139068786  1.0000
  Ni  Ni15      1.0  0.008541667417589832  0.009312298240108135  0.9998466728946551  1.0000
  Ni  Ni16      1.0  0.009541532774413719  0.005062701481140979  0.9994081907073744  1.0000
  Ni  Ni17      1.0  0.00120819913364482  6.270135217029928e-05  0.9998953497761284  1.0000
  Ni  Ni18      1.0  0.0003748658540969241  0.007562701264334734  0.9996517701560966  1.0000
  Ni  Ni19      1.0  0.00045846757019485525  0.0023118959747033944  0.9996762065363329  1.0000
  Ni  Ni20      1.0  0.009625134351300151  0.009811895711438668  0.99943262696437  1.0000
  Ni  Ni21      1.0  0.0012918008170856275  0.004811896145051158  0.999919786032162  1.0000
  Ni  Ni22      1.0  0.0022916669377123573  0.005562298565317502  0.999481303629184  1.0000
  Ni  Ni23      1.0  0.0039583333093171705  0.0005622986601702348  0.9999684624446009  1.0000
  Ni  Ni24      1.0  0.0031250000748642686  0.008062298735665267  0.9997248831255271  1.0000
  Ni  Ni25      1.0  0.00041666669040036703  0.0049372988130960685  0.999663988496809  1.0000
  Ni  Ni26      1.0  0.009583333544469346  0.0024372986427483043  0.9994204087474121  1.0000
  Ni  Ni27      1.0  0.001249999608074557  0.007437298983443833  0.99990756799418  1.0000
  Ni  Ni28      1.0  0.003125000133091633  0.003062298588546743  0.999724883338171  1.0000
  Ni  Ni29      1.0  0.002291666680693309  0.0005622986601702348  0.9994813038431052  1.0000
  Ni  Ni30      1.0  0.003958333346858497  0.005562298565317502  0.9999684625330111  1.0000
