data_image0
_chemical_formula_structural       COCa4Si8Ca4Si8
_chemical_formula_sum              "C1 O1 Ca8 Si16"
_cell_length_a       6.786923408508301
_cell_length_b       10.725683765255061
_cell_length_c       101.34745788574219
_cell_angle_alpha    100.52507591260864
_cell_angle_beta     90.0
_cell_angle_gamma    71.55546327430268

_space_group_name_H-M_alt    "P 1"
_space_group_IT_number       1

loop_
  _space_group_symop_operation_xyz
  'x, y, z'

loop_
  _atom_site_type_symbol
  _atom_site_label
  _atom_site_symmetry_multiplicity
  _atom_site_fract_x
  _atom_site_fract_y
  _atom_site_fract_z
  _atom_site_occupancy
  C   C1        1.0  0.009226827488854481  0.008947663400225458  0.00032235447168393297  1.0000
  O   O1        1.0  0.009226827488854481  0.008947663400225458  0.00044075867208902747  1.0000
  Ca  Ca1       1.0  0.007731713506221841  0.005098743256947412  0.9994905846151007  1.0000
  Ca  Ca2       1.0  0.00023171413979570707  9.874310816782989e-05  0.9997805598371956  1.0000
  Ca  Ca3       1.0  0.005231713800168569  9.874310816782989e-05  0.9995872430401522  1.0000
  Ca  Ca4       1.0  0.002731713725778778  0.005098743256947412  0.999683901412144  1.0000
  Si  Si1       1.0  0.004596333307864502  0.008036170466700047  0.9997406867968421  1.0000
  Si  Si2       1.0  0.0070963334347235825  0.0030361702129818877  0.9996440284228217  1.0000
  Si  Si3       1.0  0.0020963336542805197  0.0030361702129818877  0.9994507116257784  1.0000
  Si  Si4       1.0  0.009596333088307565  0.008036170466700047  0.9995473699997988  1.0000
  Si  Si5       1.0  0.008367093391162629  0.007161316674027876  0.9997237744086792  1.0000
  Si  Si6       1.0  0.0008670941876374051  0.002161316233752247  0.9996271160310524  1.0000
  Si  Si7       1.0  0.0058670938308573815  0.002161316233752247  0.999433799234009  1.0000
  Si  Si8       1.0  0.003367093610719567  0.007161316674027876  0.9995304576116358  1.0000
  Ca  Ca5       1.0  0.00775925060189301  0.005011457867287899  0.9999022315641725  1.0000
  Ca  Ca6       1.0  0.0004778068846259507  0.00974128036952635  0.00015166880006045404  1.0000
  Ca  Ca7       1.0  0.005390161784979223  0.009901257131092125  0.9999845669224414  1.0000
  Ca  Ca8       1.0  0.0027445656977530845  0.005080217727074051  8.01455404735724e-05  1.0000
  Si  Si9       1.0  0.004782855786318798  0.0075160915220262225  0.00014361895399684764  1.0000
  Si  Si10      1.0  0.00744254554928084  0.002297564377609894  3.5311640371407175e-05  1.0000
  Si  Si11      1.0  0.0020963336542805197  0.0030361702129818877  0.9998373452198651  1.0000
  Si  Si12      1.0  0.009768284970150507  0.007556431216851871  0.9999347345584798  1.0000
  Si  Si13      1.0  0.008309891819020686  0.0074859587594922825  0.00014471611299183564  1.0000
  Si  Si14      1.0  0.0009670239039452314  0.0022049048269157405  2.4729720291926737e-05  1.0000
  Si  Si15      1.0  0.0058670938308573815  0.002161316233752247  0.9998204328280957  1.0000
  Si  Si16      1.0  0.0033925108941248224  0.007316578008985133  0.9999273374450438  1.0000
