data_image0
_chemical_formula_structural       HGa12Ti4
_chemical_formula_sum              "H1 Ga12 Ti4"
_cell_length_a       5.2058431366663624
_cell_length_b       5.205842971801758
_cell_length_c       102.54830169677734
_cell_angle_alpha    90.0
_cell_angle_beta     90.0
_cell_angle_gamma    117.1983438351631

_space_group_name_H-M_alt    "P 1"
_space_group_IT_number       1

loop_
  _space_group_symop_operation_xyz
  'x, y, z'

loop_
  _atom_site_type_symbol
  _atom_site_label
  _atom_site_symmetry_multiplicity
  _atom_site_fract_x
  _atom_site_fract_y
  _atom_site_fract_z
  _atom_site_occupancy
  H   H1        1.0  9.327999985884429e-07  0.002499746660624259  0.0  1.0000
  Ga  Ga1       1.0  0.009999957808967345  0.007498311726668303  1.3856638363909322e-06  1.0000
  Ga  Ga2       1.0  0.005001840652186987  0.002500962705031739  0.9997430901361863  1.0000
  Ga  Ga3       1.0  0.00499970575697059  0.0024990538087727118  1.4217003958943877e-06  1.0000
  Ga  Ga4       1.0  2.923499958640981e-06  0.007500946078053194  0.9997430918798909  1.0000
  Ga  Ga5       1.0  4.179999779413489e-08  0.002499915644473916  0.9996126668525254  1.0000
  Ga  Ga6       1.0  0.005002448093637291  0.007500098856505218  0.9999147363377452  1.0000
  Ga  Ga7       1.0  4.179999779413489e-08  0.007499915887777203  0.9994804190727309  1.0000
  Ga  Ga8       1.0  0.005000041660024234  0.002499915715564993  0.9992159232225244  1.0000
  Ga  Ga9       1.0  0.005000041660024234  0.002499915715564993  0.9994804190727309  1.0000
  Ga  Ga10      1.0  4.179999779413489e-08  0.007499915887777203  0.9992159232225244  1.0000
  Ga  Ga11      1.0  4.179999779413489e-08  0.002499915644473916  0.9990836751521124  1.0000
  Ga  Ga12      1.0  0.005000041660024234  0.007499915623431763  0.9993481710023189  1.0000
  Ti  Ti1       1.0  9.327999985884429e-07  0.002499746660624259  0.9998798564355548  1.0000
  Ti  Ti2       1.0  0.005000041660024234  0.007499915623431763  0.9996126668525254  1.0000
  Ti  Ti3       1.0  4.179999779413489e-08  0.002499915644473916  0.9993481710023189  1.0000
  Ti  Ti4       1.0  0.005000041660024234  0.007499915623431763  0.9990836751521124  1.0000
