data_image0
_chemical_formula_structural       HRh12Si6Zn6
_chemical_formula_sum              "H1 Rh12 Si6 Zn6"
_cell_length_a       5.991054534912109
_cell_length_b       7.337513434981726
_cell_length_c       102.2628173828125
_cell_angle_alpha    94.34775316547926
_cell_angle_beta     90.0
_cell_angle_gamma    114.094842136127

_space_group_name_H-M_alt    "P 1"
_space_group_IT_number       1

loop_
  _space_group_symop_operation_xyz
  'x, y, z'

loop_
  _atom_site_type_symbol
  _atom_site_label
  _atom_site_symmetry_multiplicity
  _atom_site_fract_x
  _atom_site_fract_y
  _atom_site_fract_z
  _atom_site_occupancy
  H   H1        1.0  0.00035859199627726984  0.00044655359465119334  0.00011492866207462941  1.0000
  Rh  Rh1       1.0  0.005095490247834179  0.004927872234362699  0.9999600748264125  1.0000
  Rh  Rh2       1.0  0.0009501260761891127  0.006636779784724603  0.999712033567584  1.0000
  Rh  Rh3       1.0  0.006783459023341619  0.00830344602724253  0.9994491258222199  1.0000
  Rh  Rh4       1.0  0.004700125801626374  0.004136779583812041  0.9993176718994485  1.0000
  Rh  Rh5       1.0  0.002963001259937932  0.0006014918853738299  0.9998509326768884  1.0000
  Rh  Rh6       1.0  0.008866792366738341  0.002470113062248891  0.9995805796432948  1.0000
  Rh  Rh7       1.0  0.009700125627519917  0.004136779583812041  0.9993176718994485  1.0000
  Rh  Rh8       1.0  0.007908838083938424  0.0005982969570872915  0.999851077915402  1.0000
  Rh  Rh9       1.0  0.0038667928517491885  0.002470113062248891  0.9995805796432948  1.0000
  Rh  Rh10      1.0  9.154066382948314e-05  0.004925432821018805  0.9999599887001174  1.0000
  Rh  Rh11      1.0  0.005950125902082655  0.006636779784724603  0.999712033567584  1.0000
  Rh  Rh12      1.0  0.0017834591974480768  0.00830344602724253  0.9994491258222199  1.0000
  Si  Si1       1.0  0.007006813398091678  0.0037534629735473347  0.9997748455981574  1.0000
  Si  Si2       1.0  0.0028251258576797045  0.0053867794052230985  0.999514852586284  1.0000
  Si  Si3       1.0  0.0013159802761013042  0.0023671110522124777  1.287582799310791e-05  1.0000
  Si  Si4       1.0  0.009908458846993918  0.009553445848653586  0.9996463065090554  1.0000
  Si  Si5       1.0  0.005741792714467818  0.0012201129617926102  0.9993833986635127  1.0000
  Si  Si6       1.0  0.003966788337117616  0.00767101346796368  0.9999001810598674  1.0000
  Zn  Zn1       1.0  0.0019297814375841321  0.0035994771688144848  0.9997714888872031  1.0000
  Zn  Zn2       1.0  0.007825125936183064  0.0053867794052230985  0.999514852586284  1.0000
  Zn  Zn3       1.0  0.006257747971250271  0.0022493409922898153  5.0663595773741294e-05  1.0000
  Zn  Zn4       1.0  0.004908459030816137  0.009553445848653586  0.9996463065090554  1.0000
  Zn  Zn5       1.0  0.0007417926845432714  0.0012201129617926102  0.9993833986635127  1.0000
  Zn  Zn6       1.0  0.009185716595592124  0.008095022126991454  0.9999748503598648  1.0000
