data_image0
_chemical_formula_structural       Ni10Sb20H
_chemical_formula_sum              "Ni10 Sb20 H1"
_cell_length_a       11.196961560923006
_cell_length_b       7.539881383477118
_cell_length_c       33.27247619628906
_cell_angle_alpha    111.84725565881428
_cell_angle_beta     112.51654676430367
_cell_angle_gamma    79.39061887671608

_space_group_name_H-M_alt    "P 1"
_space_group_IT_number       1

loop_
  _space_group_symop_operation_xyz
  'x, y, z'

loop_
  _atom_site_type_symbol
  _atom_site_label
  _atom_site_symmetry_multiplicity
  _atom_site_fract_x
  _atom_site_fract_y
  _atom_site_fract_z
  _atom_site_occupancy
  Ni  Ni1       1.0  0.003920137869187437  0.007934811099954022  0.000747566723362121  1.0000
  Ni  Ni2       1.0  0.008054645472021353  0.006143778791371235  0.00030326352206294774  1.0000
  Ni  Ni3       1.0  4.624024728803613e-05  0.0001516006004427041  0.9986389421541666  1.0000
  Ni  Ni4       1.0  0.0020462401264379868  0.0041516007243504825  0.9997427829642104  1.0000
  Ni  Ni5       1.0  0.0060462401027399715  0.0021516006124337795  0.999190862517263  1.0000
  Ni  Ni6       1.0  0.0040462398872502066  0.008151600681715549  0.9994668227036057  1.0000
  Ni  Ni7       1.0  0.00804623967909768  0.006151600703033016  0.9989149022441227  1.0000
  Ni  Ni8       1.0  4.624024728803613e-05  0.0001516006004427041  1.8743419446577704e-05  1.0000
  Ni  Ni9       1.0  0.0016000531467085992  0.0037738317558976054  0.0010319764524162017  1.0000
  Ni  Ni10      1.0  0.006029741089114246  0.0020477549690589756  0.0005367365020938498  1.0000
  Sb  Sb1       1.0  0.004246875833063217  0.009848399126427248  0.00033956373309608034  1.0000
  Sb  Sb2       1.0  0.008217072652538076  0.007856199741939268  0.9997771589943538  1.0000
  Sb  Sb3       1.0  0.009953759071763768  0.001489964786315414  0.0008494864083824264  1.0000
  Sb  Sb4       1.0  0.002217072559637036  0.005856199763256736  0.9992252383795397  1.0000
  Sb  Sb5       1.0  0.006217072351484509  0.003856199784574203  0.9986733179200568  1.0000
  Sb  Sb6       1.0  0.005875407491647503  0.00044700150691044075  0.9997084068494642  1.0000
  Sb  Sb7       1.0  0.00987540700671085  0.008447001621491828  0.9991564865681887  1.0000
  Sb  Sb8       1.0  0.0018553486030927844  0.002439621844759041  0.0002739399363874455  1.0000
  Sb  Sb9       1.0  0.0038754076341316066  0.0064470016428092945  0.9986045660462036  1.0000
  Sb  Sb10      1.0  0.007798502831670593  0.004355534274564885  0.0007947676809638743  1.0000
  Sb  Sb11      1.0  0.005649084927645306  0.005560163030020451  0.999739635184491  1.0000
  Sb  Sb12      1.0  0.009649084728240902  0.003560162784869578  0.9991877147036645  1.0000
  Sb  Sb13      1.0  0.0015644419536907574  0.007450122242884059  0.0002973724384602409  1.0000
  Sb  Sb14      1.0  0.003649084995500761  0.0015601628061870452  0.9986357941352648  1.0000
  Sb  Sb15      1.0  0.00768584040960459  0.00958381418433572  0.0008359901458814756  1.0000
  Sb  Sb16      1.0  0.0024433952971585904  0.0007430384399979808  0.9991940103076541  1.0000
  Sb  Sb17      1.0  0.006443395359024377  0.008743038354728111  0.9986420898560664  1.0000
  Sb  Sb18      1.0  0.008443394849818282  0.0027430384186805136  0.9997459308528465  1.0000
  Sb  Sb19      1.0  0.00045686523493105544  0.006715337926195859  0.0008898978488916825  1.0000
  Sb  Sb20      1.0  0.0044346033788656945  0.004645877112305193  0.0002844356603356305  1.0000
  H   H1        1.0  0.005232172416257451  0.0033468159740649987  0.0008614089671219417  1.0000
