data_image0
_chemical_formula_structural       Os8Si16H
_chemical_formula_sum              "Os8 Si16 H1"
_cell_length_a       6.561603546142578
_cell_length_b       6.56160340717917
_cell_length_c       103.21435546875
_cell_angle_alpha    90.0
_cell_angle_beta     90.0
_cell_angle_gamma    102.79129430645857

_space_group_name_H-M_alt    "P 1"
_space_group_IT_number       1

loop_
  _space_group_symop_operation_xyz
  'x, y, z'

loop_
  _atom_site_type_symbol
  _atom_site_label
  _atom_site_symmetry_multiplicity
  _atom_site_fract_x
  _atom_site_fract_y
  _atom_site_fract_z
  _atom_site_occupancy
  Os  Os1       1.0  0.0017538289627932993  0.0018661062241801492  0.999526967216535  1.0000
  Os  Os2       1.0  0.0028884806756219903  0.0030007582988857513  0.9999239961682408  1.0000
  Os  Os3       1.0  0.00675382881877195  0.006866106317330394  0.9996356653082024  1.0000
  Os  Os4       1.0  0.007963087504361062  0.008075365334330016  2.3288777065799993e-05  1.0000
  Os  Os5       1.0  0.0027184707109945273  0.007114512404855408  0.9997784262969941  1.0000
  Os  Os6       1.0  0.0020208399958283716  0.007824590901821802  0.9993801912698345  1.0000
  Os  Os7       1.0  0.007002233952962719  0.0028307483309711673  0.9997784262969941  1.0000
  Os  Os8       1.0  0.007712313533123047  0.0021331173266088293  0.9993801912698345  1.0000
  Si  Si1       1.0  0.0006131517851519301  0.008187181724242336  0.9996018853782663  1.0000
  Si  Si2       1.0  0.004123113720341454  0.006717724963058475  0.0  1.0000
  Si  Si3       1.0  0.003074903976167125  0.005725429168330019  0.9995607471464711  1.0000
  Si  Si4       1.0  0.0017489075980386857  0.009274571111120716  0.999969582182246  1.0000
  Si  Si5       1.0  0.009162293144195472  0.0018611849802905257  0.999969582182246  1.0000
  Si  Si6       1.0  0.005613151637628523  0.0031871813399975747  0.9995607471464711  1.0000
  Si  Si7       1.0  0.0066054476435621415  0.004235391151572514  0.0  1.0000
  Si  Si8       1.0  0.008074903909204243  0.0007254291479534033  0.9996018853782663  1.0000
  Si  Si9       1.0  0.0039225445687815635  0.0014738666975559088  0.9993334032227639  1.0000
  Si  Si10      1.0  0.0008106086772096937  0.0034838412921772196  0.9997356532078324  1.0000
  Si  Si11      1.0  0.006385260859680494  0.009066683633673321  0.999829586764605  1.0000
  Si  Si12      1.0  0.008371563780497568  0.005922886147075593  0.9994269793169049  1.0000
  Si  Si13      1.0  0.005810608697300931  0.008483841385327465  0.9994269793169049  1.0000
  Si  Si14      1.0  0.008954406344602286  0.006497538742304764  0.999829586764605  1.0000
  Si  Si15      1.0  0.0033715640664541274  0.0009228860539253475  0.9997356532078324  1.0000
  Si  Si16      1.0  0.0013615894113577277  0.004034822081355039  0.9993334032227639  1.0000
  H   H1        1.0  0.009386848194709526  0.0057796036043481335  2.479947535989176e-05  1.0000
