data_image0
_chemical_formula_structural       COAu12In6Ti6
_chemical_formula_sum              "C1 O1 Au12 In6 Ti6"
_cell_length_a       6.713469505310059
_cell_length_b       8.222287367832378
_cell_length_c       106.15313720703125
_cell_angle_alpha    94.34775315366225
_cell_angle_beta     90.0
_cell_angle_gamma    114.09484248367568

_space_group_name_H-M_alt    "P 1"
_space_group_IT_number       1

loop_
  _space_group_symop_operation_xyz
  'x, y, z'

loop_
  _atom_site_type_symbol
  _atom_site_label
  _atom_site_symmetry_multiplicity
  _atom_site_fract_x
  _atom_site_fract_y
  _atom_site_fract_z
  _atom_site_occupancy
  C   C1        1.0  0.004913178567457101  0.00035024319109110743  7.403096578475319e-05  1.0000
  O   O1        1.0  0.004913178567457101  0.00035024319109110743  0.0001870748666036868  1.0000
  Au  Au1       1.0  0.00960319278754882  0.00521317723271429  0.9999153684328617  1.0000
  Au  Au2       1.0  0.00560514102569614  0.006733090362623213  0.9996269078054016  1.0000
  Au  Au3       1.0  0.0014384741051880635  0.008399756810153983  0.9993430948037718  1.0000
  Au  Au4       1.0  0.005098669054932658  0.005221429691355298  0.9999153916238485  1.0000
  Au  Au5       1.0  0.0006051408814226787  0.006733090362623213  0.9996269078054016  1.0000
  Au  Au6       1.0  0.006438474110737043  0.008399756810153983  0.9993430948037718  1.0000
  Au  Au7       1.0  0.004355140816520965  0.004233089944272865  0.9992011886056388  1.0000
  Au  Au8       1.0  0.0024639712478679294  0.0009175864313212483  0.9997852128163993  1.0000
  Au  Au9       1.0  0.008521807459580078  0.002566423496742095  0.9994850013265202  1.0000
  Au  Au10      1.0  0.009355140683345465  0.004233089944272865  0.9992011886056388  1.0000
  Au  Au11      1.0  0.007938809040471053  0.000920448831712429  0.9997859034205179  1.0000
  Au  Au12      1.0  0.00352180759275558  0.002566423496742095  0.9994850013265202  1.0000
  In  In1       1.0  0.005396807483834758  0.001316423412075953  0.9992721417273699  1.0000
  In  In2       1.0  0.0037827679022991185  0.008081871306444546  0.999870683992671  1.0000
  In  In3       1.0  0.00956347416295233  0.009649756770311093  0.9995559546829395  1.0000
  In  In4       1.0  0.0024801407418033497  0.005483089904429975  0.999414048204058  1.0000
  In  In5       1.0  0.0010676175113010459  0.002636456839025735  1.5481244143738314e-05  1.0000
  In  In6       1.0  0.0066468075062463845  0.003816423456899205  0.9996978609249394  1.0000
  Ti  Ti1       1.0  0.004563474122722229  0.009649756770311093  0.9995559546829395  1.0000
  Ti  Ti2       1.0  0.0003968075476480193  0.001316423412075953  0.9992721417273699  1.0000
  Ti  Ti3       1.0  0.008723628004990703  0.007962635480967116  0.9998230522558798  1.0000
  Ti  Ti4       1.0  0.0016468075700596452  0.003816423456899205  0.9996978609249394  1.0000
  Ti  Ti5       1.0  0.0074801407300117695  0.005483089904429975  0.999414048204058  1.0000
  Ti  Ti6       1.0  0.005851290627169654  0.0022340172516846055  0.9999499160459232  1.0000
