data_image0
_chemical_formula_structural       COAl28Co4Cu8
_chemical_formula_sum              "C1 O1 Al28 Co4 Cu8"
_cell_length_a       6.3097076416015625
_cell_length_b       6.3097076416015625
_cell_length_c       114.21856689453125
_cell_angle_alpha    90.0
_cell_angle_beta     90.0
_cell_angle_gamma    90.0

_space_group_name_H-M_alt    "P 1"
_space_group_IT_number       1

loop_
  _space_group_symop_operation_xyz
  'x, y, z'

loop_
  _atom_site_type_symbol
  _atom_site_label
  _atom_site_symmetry_multiplicity
  _atom_site_fract_x
  _atom_site_fract_y
  _atom_site_fract_z
  _atom_site_occupancy
  C   C1        1.0  0.0017209973692634815  0.005985448561509856  4.577383133603049e-05  1.0000
  O   O1        1.0  0.0017209973692634815  0.005985448561509856  0.00015083525033571894  1.0000
  Al  Al1       1.0  0.0004061232799437382  0.009999999716605042  0.9999236829711007  1.0000
  Al  Al2       1.0  0.005406107787685938  0.005000000448708687  0.9989264036572124  1.0000
  Al  Al3       1.0  0.0004061075603795634  4.0000000726997777e-10  0.9995716369900626  1.0000
  Al  Al4       1.0  0.005406107787685938  0.005000000448708687  0.9992675419870781  1.0000
  Al  Al5       1.0  0.0019546478051041473  0.006548540767234041  0.9987743564166438  1.0000
  Al  Al6       1.0  0.003857567469160583  0.001548540613728438  0.9987743564166438  1.0000
  Al  Al7       1.0  0.006954648106211292  0.008451460578892019  0.9987743564166438  1.0000
  Al  Al8       1.0  0.008857567327463104  0.003451460425386415  0.9987743564166438  1.0000
  Al  Al9       1.0  0.008857567327463104  0.003451460425386415  0.9994195894885703  1.0000
  Al  Al10      1.0  0.006954648106211292  0.008451460578892019  0.9994195894885703  1.0000
  Al  Al11      1.0  0.003857567469160583  0.001548540613728438  0.9994195894885703  1.0000
  Al  Al12      1.0  0.0019546478051041473  0.006548540767234041  0.9994195894885703  1.0000
  Al  Al13      1.0  0.0024497808662643315  0.0039446895742621755  0.9998941297177663  1.0000
  Al  Al14      1.0  0.006461412167664621  0.0020436611287575905  0.9998941297177663  1.0000
  Al  Al15      1.0  0.004350786285928435  0.007956348919955359  0.9998941297177663  1.0000
  Al  Al16      1.0  0.007453257331276466  0.0008580735175033418  0.9989682991198031  1.0000
  Al  Al17      1.0  0.0033589582440954097  0.009141927601316343  0.9989682991198031  1.0000
  Al  Al18      1.0  0.008362424967405802  0.006055307190312035  0.9998941312833081  1.0000
  Al  Al19      1.0  0.009548034940293595  0.007047149992299215  0.9989682991198031  1.0000
  Al  Al20      1.0  0.0012641806350782805  0.0029528509051181587  0.9989682991198031  1.0000
  Al  Al21      1.0  0.00835895810239793  0.005858073744809717  0.9996135324526534  1.0000
  Al  Al22      1.0  0.0045480344915849085  0.007952851353826845  0.9996135324526534  1.0000
  Al  Al23      1.0  0.0062641810837869676  0.002047149986395153  0.9996135324526534  1.0000
  Al  Al24      1.0  0.0033589582440954097  0.009141927601316343  0.9992256465244873  1.0000
  Al  Al25      1.0  0.007453257331276466  0.0008580735175033418  0.9992256465244873  1.0000
  Al  Al26      1.0  0.002453257177770862  0.00414192744781074  0.9996135324526534  1.0000
  Al  Al27      1.0  0.0012641806350782805  0.0029528509051181587  0.9992256465244873  1.0000
  Al  Al28      1.0  0.009548034940293595  0.007047149992299215  0.9992256465244873  1.0000
  Co  Co1       1.0  0.0004061075603795634  4.0000000726997777e-10  0.9988356591174546  1.0000
  Co  Co2       1.0  0.005406109558904437  0.005000012847238177  0.0  1.0000
  Co  Co3       1.0  0.0004061075603795634  4.0000000726997777e-10  0.9993582865268359  1.0000
  Co  Co4       1.0  0.005406107787685938  0.005000000448708687  0.9994808924503048  1.0000
  Cu  Cu1       1.0  0.003218941945767878  0.0008121973347733702  0.9997472907736539  1.0000
  Cu  Cu2       1.0  0.009593892968033957  0.0028128440532892863  0.9997472939047373  1.0000
  Cu  Cu3       1.0  0.001218342976350653  0.007187165405017497  0.9997472939047373  1.0000
  Cu  Cu4       1.0  0.008115946333987687  0.004080689929847278  0.9990969730830689  1.0000
  Cu  Cu5       1.0  0.0026962689461811056  0.005919311262773178  0.9990969730830689  1.0000
  Cu  Cu6       1.0  0.007593259755059092  0.009187769097684052  0.9997472959921263  1.0000
  Cu  Cu7       1.0  0.006325418011344263  0.007709838995010435  0.9990969730830689  1.0000
  Cu  Cu8       1.0  0.004486797268824529  0.002290161902406938  0.9990969730830689  1.0000
