data_image0
_chemical_formula_structural       COCu18Ge6
_chemical_formula_sum              "C1 O1 Cu18 Ge6"
_cell_length_a       6.306608768861134
_cell_length_b       6.8924854370697926
_cell_length_c       103.1928482055664
_cell_angle_alpha    79.2506612573676
_cell_angle_beta     86.78545326609961
_cell_angle_gamma    64.92886720709481

_space_group_name_H-M_alt    "P 1"
_space_group_IT_number       1

loop_
  _space_group_symop_operation_xyz
  'x, y, z'

loop_
  _atom_site_type_symbol
  _atom_site_label
  _atom_site_symmetry_multiplicity
  _atom_site_fract_x
  _atom_site_fract_y
  _atom_site_fract_z
  _atom_site_occupancy
  C   C1        1.0  0.003892016284971002  0.00024447276288595723  0.9999836164702587  1.0000
  O   O1        1.0  0.003892016284971002  0.00024447276288595723  9.990325682112794e-05  1.0000
  Cu  Cu1       1.0  0.006122274043340931  0.009654151328656244  0.999508737429024  1.0000
  Cu  Cu2       1.0  0.009455608312283459  0.0029874846862539745  0.9992406889025118  1.0000
  Cu  Cu3       1.0  0.002816969461216552  0.006270062652419234  0.9997935419893547  1.0000
  Cu  Cu4       1.0  0.0004923683215585599  0.0024714231285084378  0.9996749015666834  1.0000
  Cu  Cu5       1.0  0.0038777249939395426  0.005776425946769582  0.9994184901567683  1.0000
  Cu  Cu6       1.0  0.007211058029686077  0.009109759571275675  0.9991504415387406  1.0000
  Cu  Cu7       1.0  0.006403097570442697  0.005758732955328974  0.9996201440995262  1.0000
  Cu  Cu8       1.0  0.009736430606189232  0.009092066579835066  0.9993520954814984  1.0000
  Cu  Cu9       1.0  0.002879305068542366  0.002491847381099021  0.9998691265105251  1.0000
  Cu  Cu10      1.0  0.004748224261473855  0.009012234894966609  0.9997563050983067  1.0000
  Cu  Cu11      1.0  0.008063088645511928  0.002438750966742092  0.9994866565187327  1.0000
  Cu  Cu12      1.0  0.00139642202212112  0.005772084439595706  0.9992186078783218  1.0000
  Cu  Cu13      1.0  0.0002635684520481702  0.006338511302200676  0.9995751320966653  1.0000
  Cu  Cu14      1.0  0.0035969020584649394  0.009671844320096852  0.9993070834842387  1.0000
  Cu  Cu15      1.0  0.00701491939797861  0.0029087618843132578  0.9998360597567909  1.0000
  Cu  Cu16      1.0  0.008666070344670387  0.009524739595465532  0.9997114698790467  1.0000
  Cu  Cu17      1.0  0.0019369108271948868  0.0029918264967328085  0.9994405711556416  1.0000
  Cu  Cu18      1.0  0.005270244000369747  0.006325159817933943  0.999172522252119  1.0000
  Ge  Ge1       1.0  0.008826125410180876  0.005749798197865789  0.9998269770347546  1.0000
  Ge  Ge2       1.0  0.002176688907805156  0.009126944223606081  0.9995511326607436  1.0000
  Ge  Ge3       1.0  0.005510022653834684  0.002460277429551333  0.9992830838491105  1.0000
  Ge  Ge4       1.0  0.007823310446245828  0.006303633658429661  0.9993760949164063  1.0000
  Ge  Ge5       1.0  0.0010796424293976566  0.009755527371326487  0.9998982953452364  1.0000
  Ge  Ge6       1.0  0.004534016460751719  0.002924433651511396  0.9996460276471112  1.0000
