data_image0
_chemical_formula_structural       HV48
_chemical_formula_sum              "H1 V48"
_cell_length_a       8.476552963256836
_cell_length_b       8.47655316419051
_cell_length_c       101.14484405517578
_cell_angle_alpha    90.0
_cell_angle_beta     90.0
_cell_angle_gamma    119.9999992158567

_space_group_name_H-M_alt    "P 1"
_space_group_IT_number       1

loop_
  _space_group_symop_operation_xyz
  'x, y, z'

loop_
  _atom_site_type_symbol
  _atom_site_label
  _atom_site_symmetry_multiplicity
  _atom_site_fract_x
  _atom_site_fract_y
  _atom_site_fract_z
  _atom_site_occupancy
  H   H1        1.0  0.0041666666818419495  0.004999999898506042  0.00014830202997497896  1.0000
  V   V1        1.0  0.0008333333519283564  0.0008333333375622483  0.9999144654791712  1.0000
  V   V2        1.0  0.002500000113704933  0.004166666751244966  0.9995723285744554  1.0000
  V   V3        1.0  0.004166666729189527  0.002499999949253021  0.9997433970268134  1.0000
  V   V4        1.0  0.0008333333519283564  0.0008333333375622483  0.9996578630952844  1.0000
  V   V5        1.0  0.002500000113704933  0.004166666751244966  0.9998289315476422  1.0000
  V   V6        1.0  0.004166666729189527  0.002499999949253021  0.0  1.0000
  V   V7        1.0  0.0008333333519283564  0.0008333333375622483  0.9994012601220976  1.0000
  V   V8        1.0  0.002500000113704933  0.004166666751244966  0.999059123217382  1.0000
  V   V9        1.0  0.004166666729189527  0.002499999949253021  0.9992301919643898  1.0000
  V   V10       1.0  0.0008333333519283564  0.0008333333375622483  0.999144657443561  1.0000
  V   V11       1.0  0.002500000113704933  0.004166666751244966  0.9993157261905686  1.0000
  V   V12       1.0  0.004166666729189527  0.002499999949253021  0.9994867943482766  1.0000
  V   V13       1.0  0.0008333333164176738  0.005833333299502014  0.9999144654791712  1.0000
  V   V14       1.0  0.002499999864674722  0.009166666396016111  0.9995723285744554  1.0000
  V   V15       1.0  0.004166666706426602  0.007500000101493959  0.9997433970268134  1.0000
  V   V16       1.0  0.0008333333164176738  0.005833333299502014  0.9996578630952844  1.0000
  V   V17       1.0  0.002499999864674722  0.009166666396016111  0.9998289315476422  1.0000
  V   V18       1.0  0.004166666706426602  0.007500000101493959  0.0  1.0000
  V   V19       1.0  0.0008333333164176738  0.005833333299502014  0.9994012601220976  1.0000
  V   V20       1.0  0.002499999864674722  0.009166666396016111  0.999059123217382  1.0000
  V   V21       1.0  0.004166666706426602  0.007500000101493959  0.9992301919643898  1.0000
  V   V22       1.0  0.0008333333164176738  0.005833333299502014  0.999144657443561  1.0000
  V   V23       1.0  0.002499999864674722  0.009166666396016111  0.9993157261905686  1.0000
  V   V24       1.0  0.004166666706426602  0.007500000101493959  0.9994867943482766  1.0000
  V   V25       1.0  0.005833333687033188  0.0008333333375622483  0.9999144654791712  1.0000
  V   V26       1.0  0.007500000393874546  0.004166666751244966  0.9995723285744554  1.0000
  V   V27       1.0  0.009166666817085877  0.002499999949253021  0.9997433970268134  1.0000
  V   V28       1.0  0.005833333687033188  0.0008333333375622483  0.9996578630952844  1.0000
  V   V29       1.0  0.007500000393874546  0.004166666751244966  0.9998289315476422  1.0000
  V   V30       1.0  0.009166666817085877  0.002499999949253021  0.0  1.0000
  V   V31       1.0  0.005833333687033188  0.0008333333375622483  0.9994012601220976  1.0000
  V   V32       1.0  0.007500000393874546  0.004166666751244966  0.999059123217382  1.0000
  V   V33       1.0  0.009166666817085877  0.002499999949253021  0.9992301919643898  1.0000
  V   V34       1.0  0.005833333687033188  0.0008333333375622483  0.999144657443561  1.0000
  V   V35       1.0  0.007500000393874546  0.004166666751244966  0.9993157261905686  1.0000
  V   V36       1.0  0.009166666817085877  0.002499999949253021  0.9994867943482766  1.0000
  V   V37       1.0  0.005833333404314024  0.005833333299502014  0.9999144654791712  1.0000
  V   V38       1.0  0.007499999952571072  0.009166666396016111  0.9995723285744554  1.0000
  V   V39       1.0  0.009166667068999042  0.007500000101493959  0.9997433970268134  1.0000
  V   V40       1.0  0.005833333404314024  0.005833333299502014  0.9996578630952844  1.0000
  V   V41       1.0  0.007499999952571072  0.009166666396016111  0.9998289315476422  1.0000
  V   V42       1.0  0.009166667068999042  0.007500000101493959  0.0  1.0000
  V   V43       1.0  0.005833333404314024  0.005833333299502014  0.9994012601220976  1.0000
  V   V44       1.0  0.007499999952571072  0.009166666396016111  0.999059123217382  1.0000
  V   V45       1.0  0.009166667068999042  0.007500000101493959  0.9992301919643898  1.0000
  V   V46       1.0  0.005833333404314024  0.005833333299502014  0.999144657443561  1.0000
  V   V47       1.0  0.007499999952571072  0.009166666396016111  0.9993157261905686  1.0000
  V   V48       1.0  0.009166667068999042  0.007500000101493959  0.9994867943482766  1.0000
