data_image0
_chemical_formula_structural       HCo6Sb12
_chemical_formula_sum              "H1 Co6 Sb12"
_cell_length_a       7.315856748918722
_cell_length_b       6.617924428140651
_cell_length_c       107.01004791259766
_cell_angle_alpha    109.43816255108965
_cell_angle_beta     116.40468610629631
_cell_angle_gamma    76.00381273661212

_space_group_name_H-M_alt    "P 1"
_space_group_IT_number       1

loop_
  _space_group_symop_operation_xyz
  'x, y, z'

loop_
  _atom_site_type_symbol
  _atom_site_label
  _atom_site_symmetry_multiplicity
  _atom_site_fract_x
  _atom_site_fract_y
  _atom_site_fract_z
  _atom_site_occupancy
  H   H1        1.0  0.0030096024919329255  0.005397453616461248  0.00030221432117921514  1.0000
  Co  Co1       1.0  0.0076210533201242344  0.008333333195534209  3.621695699463596e-06  1.0000
  Co  Co2       1.0  0.0009543866782469003  0.0016666665279647843  0.9994271952214029  1.0000
  Co  Co3       1.0  0.004287720070693257  0.004999999629555521  0.9997154083166964  1.0000
  Co  Co4       1.0  0.0076210533201242344  0.008333333195534209  0.9995713016194105  1.0000
  Co  Co5       1.0  0.0009543866782469003  0.0016666665279647843  0.9998595147406913  1.0000
  Co  Co6       1.0  0.004287720070693257  0.004999999629555521  0.00014772811448502372  1.0000
  Sb  Sb1       1.0  0.009329821098331754  0.008484217882313575  0.9998428284622283  1.0000
  Sb  Sb2       1.0  0.002663154027408282  0.0018175518617409242  0.00013104158378067214  1.0000
  Sb  Sb3       1.0  0.005996487848900778  0.005150884913268547  0.9995546153740109  1.0000
  Sb  Sb4       1.0  0.009245619363409209  0.0015157816020678204  0.9995879880964204  1.0000
  Sb  Sb5       1.0  0.002578952578516496  0.0048491149094007455  0.9998762012796766  1.0000
  Sb  Sb6       1.0  0.005912286113978232  0.008182447845070363  0.00016441465440349685  1.0000
  Sb  Sb7       1.0  0.004571927669932842  0.0008631650259874592  0.9996162018942478  1.0000
  Sb  Sb8       1.0  0.007905260919363818  0.004196498144265901  0.9999044149855366  1.0000
  Sb  Sb9       1.0  0.0012385941344711055  0.007529831451598827  0.00019262844729310536  1.0000
  Sb  Sb10      1.0  0.0006701792935303851  0.0058035011065012895  0.9995264013713582  1.0000
  Sb  Sb11      1.0  0.004003512757484432  0.00913683464744842  0.9998146147563682  1.0000
  Sb  Sb12      1.0  0.007336846292946168  0.002470168072603637  0.00010282779582897466  1.0000
