data_image0
_chemical_formula_structural       HFe6Sn6Rh12Fe6Sn6Rh12
_chemical_formula_sum              "H1 Fe12 Sn12 Rh24"
_cell_length_a       7.04905366897583
_cell_length_b       9.207670996854162
_cell_length_c       104.9406509399414
_cell_angle_alpha    71.56505117707799
_cell_angle_beta     90.0
_cell_angle_gamma    90.0

_space_group_name_H-M_alt    "P 1"
_space_group_IT_number       1

loop_
  _space_group_symop_operation_xyz
  'x, y, z'

loop_
  _atom_site_type_symbol
  _atom_site_label
  _atom_site_symmetry_multiplicity
  _atom_site_fract_x
  _atom_site_fract_y
  _atom_site_fract_z
  _atom_site_occupancy
  H   H1        1.0  0.008776035907986349  0.005210476347982741  0.9998882026395306  1.0000
  Fe  Fe1       1.0  4.229999960078676e-08  0.00667150739771557  0.9991271302211399  1.0000
  Fe  Fe2       1.0  4.229999960078676e-08  0.0033381739193822403  0.9989421546299804  1.0000
  Fe  Fe3       1.0  4.229999960078676e-08  4.840600142426758e-06  0.9993121059676308  1.0000
  Fe  Fe4       1.0  0.005000042447586701  0.00667150739771557  0.9988496667545278  1.0000
  Fe  Fe5       1.0  0.005000042447586701  0.0033381739193822403  0.9992196180965924  1.0000
  Fe  Fe6       1.0  0.005000042447586701  4.840600142426758e-06  0.9990346425010186  1.0000
  Sn  Sn1       1.0  4.229999960078676e-08  0.00667150739771557  0.9988496667545278  1.0000
  Sn  Sn2       1.0  4.229999960078676e-08  0.0033381739193822403  0.9992196180965924  1.0000
  Sn  Sn3       1.0  4.229999960078676e-08  4.840600142426758e-06  0.9990346425010186  1.0000
  Sn  Sn4       1.0  0.005000042447586701  0.00667150739771557  0.9991271302211399  1.0000
  Sn  Sn5       1.0  0.005000042447586701  0.0033381739193822403  0.9989421546299804  1.0000
  Sn  Sn6       1.0  0.005000042447586701  4.840600142426758e-06  0.9993121059676308  1.0000
  Rh  Rh1       1.0  0.007500042532143647  0.008338173603794014  0.9989421544229027  1.0000
  Rh  Rh2       1.0  0.007500042532143647  0.005004840338695972  0.999312106043043  1.0000
  Rh  Rh3       1.0  0.007500042532143647  0.0016715072868332197  0.9991271307240427  1.0000
  Rh  Rh4       1.0  0.007500042532143647  0.005004840338695972  0.9990346428604231  1.0000
  Rh  Rh5       1.0  0.007500042532143647  0.0016715072868332197  0.9988496666894462  1.0000
  Rh  Rh6       1.0  0.007500042532143647  0.008338173603794014  0.999219618173507  1.0000
  Rh  Rh7       1.0  0.002500042363029755  0.005004840338695972  0.9990346428604231  1.0000
  Rh  Rh8       1.0  0.002500042363029755  0.0016715072868332197  0.9988496666894462  1.0000
  Rh  Rh9       1.0  0.002500042363029755  0.008338173603794014  0.999219618173507  1.0000
  Rh  Rh10      1.0  0.002500042363029755  0.008338173603794014  0.9989421544229027  1.0000
  Rh  Rh11      1.0  0.002500042363029755  0.005004840338695972  0.999312106043043  1.0000
  Rh  Rh12      1.0  0.002500042363029755  0.0016715072868332197  0.9991271307240427  1.0000
  Fe  Fe7       1.0  1.9949999528621454e-07  0.0065952830320772475  0.9996858220976265  1.0000
  Fe  Fe8       1.0  4.229999960078676e-08  0.0033381739193822403  0.9994970818471967  1.0000
  Fe  Fe9       1.0  0.009999958059754973  0.00011770320048273331  0.9998308435506781  1.0000
  Fe  Fe10      1.0  0.005000042447586701  0.00667150739771557  0.9994045939717441  1.0000
  Fe  Fe11      1.0  0.0050000937102349825  0.003423188483318327  0.9997551778943907  1.0000
  Fe  Fe12      1.0  0.004999999640632981  0.009958909355200506  0.9995991402585233  1.0000
  Sn  Sn7       1.0  4.229999960078676e-08  0.00667150739771557  0.9994045939717441  1.0000
  Sn  Sn8       1.0  0.00999976463574187  0.003014701317612577  0.9998176964023493  1.0000
  Sn  Sn9       1.0  1.0100000305018951e-07  3.509099861569016e-05  0.9995781783669582  1.0000
  Sn  Sn10      1.0  0.004999997526709341  0.006762085483563865  0.9996796768503886  1.0000
  Sn  Sn11      1.0  0.005000042447586701  0.0033381739193822403  0.9994970818471967  1.0000
  Sn  Sn12      1.0  0.005000198349455186  0.009995159354245213  0.99986288387444  1.0000
  Rh  Rh13      1.0  0.007500042532143647  0.008338173603794014  0.9994970819241112  1.0000
  Rh  Rh14      1.0  0.007551872240441801  0.005079732836722335  0.9998379183601006  1.0000
  Rh  Rh15      1.0  0.0075358006074841555  0.0017048886315417584  0.9996809565072395  1.0000
  Rh  Rh16      1.0  0.007624960093349516  0.004914075458734953  0.9995908511189522  1.0000
  Rh  Rh17      1.0  0.007500042532143647  0.0016715072868332197  0.9994045939066626  1.0000
  Rh  Rh18      1.0  0.007698371905055132  0.008420829572204021  0.9997663344436609  1.0000
  Rh  Rh19      1.0  0.002374971542359952  0.004913940694032622  0.9995908565621353  1.0000
  Rh  Rh20      1.0  0.002500042363029755  0.0016715072868332197  0.9994045939066626  1.0000
  Rh  Rh21      1.0  0.002301543611986576  0.008420753660441316  0.9997663547254345  1.0000
  Rh  Rh22      1.0  0.002500042363029755  0.008338173603794014  0.9994970819241112  1.0000
  Rh  Rh23      1.0  0.002448295097753579  0.00507949358672864  0.9998379159106682  1.0000
  Rh  Rh24      1.0  0.0024643072766088363  0.0017049891719802853  0.9996809559895454  1.0000
