data_image0
_chemical_formula_structural       CONbCu3Se4NbCu3Se4
_chemical_formula_sum              "C1 O1 Nb2 Cu6 Se8"
_cell_length_a       5.7769694328308105
_cell_length_b       5.7769694328308105
_cell_length_c       104.66181945800781
_cell_angle_alpha    90.0
_cell_angle_beta     90.0
_cell_angle_gamma    90.0

_space_group_name_H-M_alt    "P 1"
_space_group_IT_number       1

loop_
  _space_group_symop_operation_xyz
  'x, y, z'

loop_
  _atom_site_type_symbol
  _atom_site_label
  _atom_site_symmetry_multiplicity
  _atom_site_fract_x
  _atom_site_fract_y
  _atom_site_fract_z
  _atom_site_occupancy
  C   C1        1.0  0.00938297772204514  0.00874699372576543  0.0001100263479614067  1.0000
  O   O1        1.0  0.00938297772204514  0.00874699372576543  0.00022468157162211988  1.0000
  Nb  Nb1       1.0  0.0031299152554072024  2.2361499462458786e-06  0.9997442210172607  1.0000
  Cu  Cu1       1.0  0.003129473531786519  1.6496499667830445e-06  0.0  1.0000
  Cu  Cu2       1.0  0.00813099949666464  0.00999970321331506  0.999749220635834  1.0000
  Cu  Cu3       1.0  0.003131932674892323  0.005000126313609955  0.9997492980874944  1.0000
  Se  Se1       1.0  0.0056280715848452305  0.002495266263982558  0.9996105639399357  1.0000
  Se  Se2       1.0  0.00563648238949424  0.007492338074876788  0.9998890727069898  1.0000
  Se  Se3       1.0  0.0006170221231903802  0.0025073383770802303  0.9998890630255323  1.0000
  Se  Se4       1.0  0.0006381322401145322  0.007505326683880879  0.9996105639399357  1.0000
  Nb  Nb2       1.0  0.003133101791570131  2.966500057551086e-07  0.9991963120262054  1.0000
  Cu  Cu4       1.0  0.003133101791570131  2.966500057551086e-07  0.999472294502339  1.0000
  Cu  Cu5       1.0  0.008133101714187891  2.966500057551086e-07  0.9991963120262054  1.0000
  Cu  Cu6       1.0  0.003133101791570131  0.005000296554538219  0.9991963120262054  1.0000
  Se  Se5       1.0  0.0056280715848452305  0.002495266263982558  0.999058598418171  1.0000
  Se  Se6       1.0  0.0056280715848452305  0.007505326683880879  0.9993340256342398  1.0000
  Se  Se7       1.0  0.0006381322401145322  0.002495266263982558  0.9993340256342398  1.0000
  Se  Se8       1.0  0.0006381322401145322  0.007505326683880879  0.999058598418171  1.0000
