data_image0
_chemical_formula_structural       HNi4Sb4Ni4Sb4
_chemical_formula_sum              "H1 Ni8 Sb8"
_cell_length_a       6.563430137301589
_cell_length_b       6.93858528137207
_cell_length_c       102.0479507446289
_cell_angle_alpha    90.0
_cell_angle_beta     72.23128566258825
_cell_angle_gamma    58.09049283879729

_space_group_name_H-M_alt    "P 1"
_space_group_IT_number       1

loop_
  _space_group_symop_operation_xyz
  'x, y, z'

loop_
  _atom_site_type_symbol
  _atom_site_label
  _atom_site_symmetry_multiplicity
  _atom_site_fract_x
  _atom_site_fract_y
  _atom_site_fract_z
  _atom_site_occupancy
  H   H1        1.0  0.005052339372024983  0.001640497105929626  1.0217726412320777e-05  1.0000
  Ni  Ni1       1.0  0.00125  0.0035416667919421175  0.9995829051905007  1.0000
  Ni  Ni2       1.0  0.00125  0.008541666781204223  0.9997791850953561  1.0000
  Ni  Ni3       1.0  0.00625  0.001041666791942118  0.999877325001057  1.0000
  Ni  Ni4       1.0  0.00625  0.006041666781204222  0.9996810450962016  1.0000
  Sb  Sb1       1.0  0.0037500000000000003  0.003958333455029486  0.9997301150957789  1.0000
  Sb  Sb2       1.0  0.0037500000000000003  0.008958333175844194  0.9999263950006342  1.0000
  Sb  Sb3       1.0  0.00875  0.008124999570484166  0.9996319750966244  1.0000
  Sb  Sb4       1.0  0.00875  0.0031249998496694583  0.9998282550014798  1.0000
  Ni  Ni5       1.0  0.00125  0.0035416667919421175  0.9991903450887478  1.0000
  Ni  Ni6       1.0  0.00125  0.008541666781204223  0.9993866249936031  1.0000
  Ni  Ni7       1.0  0.00625  0.001041666791942118  0.9994847651913463  1.0000
  Ni  Ni8       1.0  0.00625  0.006041666781204222  0.9992884849944487  1.0000
  Sb  Sb5       1.0  0.0037500000000000003  0.003958333455029486  0.9993375549940259  1.0000
  Sb  Sb6       1.0  0.0037500000000000003  0.008958333175844194  0.9995338351909235  1.0000
  Sb  Sb7       1.0  0.00875  0.008124999570484166  0.9992394149948715  1.0000
  Sb  Sb8       1.0  0.00875  0.0031249998496694583  0.9994356951917691  1.0000
