data_image0
_chemical_formula_structural       COV18Ir6V18Ir6
_chemical_formula_sum              "C1 O1 V36 Ir12"
_cell_length_a       4.789687156677246
_cell_length_b       10.71006569752435
_cell_length_c       110.64183807373047
_cell_angle_alpha    71.56505158041733
_cell_angle_beta     90.0
_cell_angle_gamma    90.0

_space_group_name_H-M_alt    "P 1"
_space_group_IT_number       1

loop_
  _space_group_symop_operation_xyz
  'x, y, z'

loop_
  _atom_site_type_symbol
  _atom_site_label
  _atom_site_symmetry_multiplicity
  _atom_site_fract_x
  _atom_site_fract_y
  _atom_site_fract_z
  _atom_site_occupancy
  C   C1        1.0  0.00249998764118388  0.0045107125547270204  0.9998619240956953  1.0000
  O   O1        1.0  0.00249998764118388  0.0045107125547270204  0.9999703818447979  1.0000
  V   V1        1.0  9.999999631895122e-11  0.007507634739110091  0.9987138677697015  1.0000
  V   V2        1.0  9.999999631895122e-11  0.004174301088017053  0.9991220104339331  1.0000
  V   V3        1.0  9.999999631895122e-11  0.0008409678035698278  0.9989179388681488  1.0000
  V   V4        1.0  9.999999631895122e-11  0.005840967730240665  0.9986118325367497  1.0000
  V   V5        1.0  9.999999631895122e-11  0.0025076344457934403  0.9990199749203995  1.0000
  V   V6        1.0  9.999999631895122e-11  0.009174301014687889  0.9988159038331754  1.0000
  V   V7        1.0  0.0049999997822235045  0.007507634739110091  0.9988669210550412  1.0000
  V   V8        1.0  0.0049999997822235045  0.004174301088017053  0.9986628503085556  1.0000
  V   V9        1.0  0.0049999997822235045  0.0008409678035698278  0.9990709926922055  1.0000
  V   V10       1.0  0.0049999997822235045  0.009174301014687889  0.9986628500091188  1.0000
  V   V11       1.0  0.0049999997822235045  0.005840967730240665  0.9990709926621271  1.0000
  V   V12       1.0  0.0049999997822235045  0.0025076344457934403  0.9988669210963428  1.0000
  V   V13       1.0  0.007500000062221856  0.005007634592451766  0.9988669213450505  1.0000
  V   V14       1.0  0.007500000062221856  0.001674301124681634  0.9986628503235948  1.0000
  V   V15       1.0  0.007500000062221856  0.00834096787689899  0.9990709923721177  1.0000
  V   V16       1.0  0.0024999998911117522  0.005007634592451766  0.9988669213450505  1.0000
  V   V17       1.0  0.0024999998911117522  0.001674301124681634  0.9986628503235948  1.0000
  V   V18       1.0  0.0024999998911117522  0.00834096787689899  0.9990709923721177  1.0000
  Ir  Ir1       1.0  0.0049999997822235045  0.006674300868029564  0.9986628502991282  1.0000
  Ir  Ir2       1.0  0.0049999997822235045  0.0033409675835823394  0.9990709924134195  1.0000
  Ir  Ir3       1.0  0.0049999997822235045  7.634499644544216e-06  0.9988669213802144  1.0000
  Ir  Ir4       1.0  9.999999631895122e-11  0.006674300868029564  0.9989689568698074  1.0000
  Ir  Ir5       1.0  9.999999631895122e-11  0.0033409675835823394  0.9987648858427401  1.0000
  Ir  Ir6       1.0  9.999999631895122e-11  7.634499644544216e-06  0.9991730279508937  1.0000
  V   V19       1.0  9.999999631895122e-11  0.007507634739110091  0.9993260814497772  1.0000
  V   V20       1.0  0.009999994120034621  0.0041864762955561826  0.9997180745552583  1.0000
  V   V21       1.0  0.009999999564447009  0.0008437666860509863  0.9995327663837195  1.0000
  V   V22       1.0  9.999999631895122e-11  0.005840967730240665  0.9992240459474667  1.0000
  V   V23       1.0  2.099999911108252e-09  0.00257184714371765  0.9996310326989128  1.0000
  V   V24       1.0  9.999999631895122e-11  0.009174301014687889  0.999428116974534  1.0000
  V   V25       1.0  0.0049999997822235045  0.007507634739110091  0.9994791347351167  1.0000
  V   V26       1.0  0.0049999997822235045  0.004174301088017053  0.9992750637192728  1.0000
  V   V27       1.0  0.005000000948883302  0.0009238677969936685  0.9996892278849893  1.0000
  V   V28       1.0  0.0049999997822235045  0.009174301014687889  0.9992750636891944  1.0000
  V   V29       1.0  0.004999980726780148  0.005913094294733018  0.9996757460089536  1.0000
  V   V30       1.0  0.0049999997822235045  0.0025076344457934403  0.9994791347764185  1.0000
  V   V31       1.0  0.007500000062221856  0.005007634592451766  0.9994791344864091  1.0000
  V   V32       1.0  0.007500000062221856  0.001674301124681634  0.9992750634649534  1.0000
  V   V33       1.0  0.007447398483051065  0.008386327830400088  0.9996735945768455  1.0000
  V   V34       1.0  0.0024999998911117522  0.005007634592451766  0.9994791344864091  1.0000
  V   V35       1.0  0.0024999998911117522  0.001674301124681634  0.9992750634649534  1.0000
  V   V36       1.0  0.0025525332206843966  0.008386328563691717  0.9996735940156818  1.0000
  Ir  Ir7       1.0  0.0049999997822235045  0.006674300868029564  0.9992750634404867  1.0000
  Ir  Ir8       1.0  0.005000000948883302  0.0033547098353296856  0.9996811676667451  1.0000
  Ir  Ir9       1.0  0.0049999997822235045  7.634499644544216e-06  0.999479134521573  1.0000
  Ir  Ir10      1.0  0.00999998089789025  0.006645602766891167  0.9995912761634584  1.0000
  Ir  Ir11      1.0  9.999999631895122e-11  0.0033409675835823394  0.9993770989840987  1.0000
  Ir  Ir12      1.0  0.009999996453354216  0.009992365554206559  0.99976732039104  1.0000
