data_image0
_chemical_formula_structural       COCa12Pb6Au12
_chemical_formula_sum              "C1 O1 Ca12 Pb6 Au12"
_cell_length_a       8.387031555175781
_cell_length_b       11.319967165441893
_cell_length_c       106.83306121826172
_cell_angle_alpha    113.42696725336434
_cell_angle_beta     90.0
_cell_angle_gamma    90.0

_space_group_name_H-M_alt    "P 1"
_space_group_IT_number       1

loop_
  _space_group_symop_operation_xyz
  'x, y, z'

loop_
  _atom_site_type_symbol
  _atom_site_label
  _atom_site_symmetry_multiplicity
  _atom_site_fract_x
  _atom_site_fract_y
  _atom_site_fract_z
  _atom_site_occupancy
  C   C1        1.0  0.009126395661633941  0.00677076289349216  0.0002852340803472274  1.0000
  O   O1        1.0  0.009126395661633941  0.00677076289349216  0.00039755852913873175  1.0000
  Ca  Ca1       1.0  0.0023422491405080937  0.009471908436401024  0.9997323245952268  1.0000
  Ca  Ca2       1.0  0.002290386205659485  0.002949465529742955  1.9248575555834173e-05  1.0000
  Ca  Ca3       1.0  0.0023422491405080937  0.006138575361299288  0.9994450143742388  1.0000
  Ca  Ca4       1.0  0.0038884511122936763  0.001138575300327938  0.999445014438621  1.0000
  Ca  Ca5       1.0  0.0038884511122936763  0.004471908465093423  0.9997323246633862  1.0000
  Ca  Ca6       1.0  0.003940336699949059  0.00794944882359325  1.924668897334426e-05  1.0000
  Ca  Ca7       1.0  0.007342249051673557  0.008956507578557954  0.9998211724350717  1.0000
  Ca  Ca8       1.0  0.007280558352066761  0.002434671695480263  9.518765382790231e-05  1.0000
  Ca  Ca9       1.0  0.007342249051673557  0.005623174503456218  0.9995338622140838  1.0000
  Ca  Ca10      1.0  0.008888451467631822  0.0006231745769804917  0.999533862284132  1.0000
  Ca  Ca11      1.0  0.008888451467631822  0.003956507965905349  0.9998211725183405  1.0000
  Ca  Ca12      1.0  0.00895013017457621  0.0074344790690551235  9.518281958176127e-05  1.0000
  Pb  Pb1       1.0  0.0006332966904196003  0.00021887909661044287  6.070594336936617e-05  1.0000
  Pb  Pb2       1.0  0.000615350115296568  0.0033808749467239526  0.9994894383282411  1.0000
  Pb  Pb3       1.0  0.000615350115296568  0.006714208021825689  0.999776748549229  1.0000
  Pb  Pb4       1.0  0.005615350081983617  0.008380874918031554  0.9994894385390432  1.0000
  Pb  Pb5       1.0  0.005615350081983617  0.0017142082298455862  0.9997767483459815  1.0000
  Pb  Pb6       1.0  0.005597395733838653  0.005218855194944886  6.071268043050187e-05  1.0000
  Au  Au1       1.0  0.006928031375505433  0.009781120689093196  0.00012190497095028799  1.0000
  Au  Au2       1.0  0.006846050423619923  0.0029706414173320092  0.9995601569604369  1.0000
  Au  Au3       1.0  0.006846050423619923  0.0063039748510887415  0.9998474669175724  1.0000
  Au  Au4       1.0  0.009384650095685456  0.007970641029984614  0.9995601568771683  1.0000
  Au  Au5       1.0  0.009384650095685456  0.0013039748797811408  0.999847466985732  1.0000
  Au  Au6       1.0  0.009302661148691674  0.004781082700356043  0.0001219012058446174  1.0000
  Au  Au7       1.0  0.001846050290368119  0.0087911080887685  0.9994187198917381  1.0000
  Au  Au8       1.0  0.001846050290368119  0.0021244417592375295  0.9997060297137856  1.0000
  Au  Au9       1.0  0.002041520471670169  0.0056601331834626005  1.5874480103598788e-05  1.0000
  Au  Au10      1.0  0.0043846501845199925  0.007124441909872628  0.9997060299321424  1.0000
  Au  Au11      1.0  0.004189148022784851  0.0006600925048129779  1.5873949218409015e-05  1.0000
  Au  Au12      1.0  0.0043846501845199925  0.0037911081174609  0.9994187199598976  1.0000
