data_image0
_chemical_formula_structural       COFe3Ni3Fe3Ni3Fe3Ni3Fe3Ni3Fe3Ni3Fe3Ni3
_chemical_formula_sum              "C1 O1 Fe18 Ni18"
_cell_length_a       5.528805770254448
_cell_length_b       7.065323352813721
_cell_length_c       104.96723937988281
_cell_angle_alpha    90.0
_cell_angle_beta     108.43494804159761
_cell_angle_gamma    90.0

_space_group_name_H-M_alt    "P 1"
_space_group_IT_number       1

loop_
  _space_group_symop_operation_xyz
  'x, y, z'

loop_
  _atom_site_type_symbol
  _atom_site_label
  _atom_site_symmetry_multiplicity
  _atom_site_fract_x
  _atom_site_fract_y
  _atom_site_fract_z
  _atom_site_occupancy
  C   C1        1.0  0.00968879542811095  0.0049999997469133035  0.00015135786545157997  1.0000
  O   O1        1.0  0.00968879542811095  0.0049999997469133035  0.00026567891252248264  1.0000
  Fe  Fe1       1.0  0.00031120403210366205  0.0012499999367283259  0.9998386211270902  1.0000
  Fe  Fe2       1.0  0.006977870338913403  0.0012499999367283259  0.9999496628668367  1.0000
  Fe  Fe3       1.0  0.003644537185508533  0.0012499999367283259  0.9997275796282027  1.0000
  Ni  Ni1       1.0  0.00031120403210366205  0.003750000073816953  5.183495850933637e-06  1.0000
  Ni  Ni2       1.0  0.006977870338913403  0.003750000073816953  0.999783100498076  1.0000
  Ni  Ni3       1.0  0.003644537185508533  0.003750000073816953  0.9998941419969635  1.0000
  Fe  Fe4       1.0  0.00031120403210366205  0.0012499999367283259  0.9995054958217283  1.0000
  Fe  Fe5       1.0  0.006977870338913403  0.0012499999367283259  0.9996165375614748  1.0000
  Fe  Fe6       1.0  0.003644537185508533  0.0012499999367283259  0.9993944540389206  1.0000
  Ni  Ni4       1.0  0.00031120403210366205  0.003750000073816953  0.9996720587583295  1.0000
  Ni  Ni5       1.0  0.006977870338913403  0.003750000073816953  0.9994499749087938  1.0000
  Ni  Ni6       1.0  0.003644537185508533  0.003750000073816953  0.9995610166916016  1.0000
  Fe  Fe7       1.0  0.00031120403210366205  0.0012499999367283259  0.9991723705163664  1.0000
  Fe  Fe8       1.0  0.006977870338913403  0.0012499999367283259  0.999283412256113  1.0000
  Fe  Fe9       1.0  0.003644537185508533  0.0012499999367283259  0.999061329017479  1.0000
  Ni  Ni7       1.0  0.00031120403210366205  0.003750000073816953  0.9993389331690474  1.0000
  Ni  Ni8       1.0  0.006977870338913403  0.003750000073816953  0.9991168498873522  1.0000
  Ni  Ni9       1.0  0.003644537185508533  0.003750000073816953  0.9992278916701599  1.0000
  Fe  Fe10      1.0  0.00031120403210366205  0.00625000021090558  0.9998386211270902  1.0000
  Fe  Fe11      1.0  0.006977870338913403  0.00625000021090558  0.9999496628668367  1.0000
  Fe  Fe12      1.0  0.003644537185508533  0.00625000021090558  0.9997275796282027  1.0000
  Ni  Ni10      1.0  0.00031120403210366205  0.008750000084362232  5.183495850933637e-06  1.0000
  Ni  Ni11      1.0  0.006977870338913403  0.008750000084362232  0.999783100498076  1.0000
  Ni  Ni12      1.0  0.003644537185508533  0.008750000084362232  0.9998941419969635  1.0000
  Fe  Fe13      1.0  0.00031120403210366205  0.00625000021090558  0.9995054958217283  1.0000
  Fe  Fe14      1.0  0.006977870338913403  0.00625000021090558  0.9996165375614748  1.0000
  Fe  Fe15      1.0  0.003644537185508533  0.00625000021090558  0.9993944540389206  1.0000
  Ni  Ni13      1.0  0.00031120403210366205  0.008750000084362232  0.9996720587583295  1.0000
  Ni  Ni14      1.0  0.006977870338913403  0.008750000084362232  0.9994499749087938  1.0000
  Ni  Ni15      1.0  0.003644537185508533  0.008750000084362232  0.9995610166916016  1.0000
  Fe  Fe16      1.0  0.00031120403210366205  0.00625000021090558  0.9991723705163664  1.0000
  Fe  Fe17      1.0  0.006977870338913403  0.00625000021090558  0.999283412256113  1.0000
  Fe  Fe18      1.0  0.003644537185508533  0.00625000021090558  0.999061329017479  1.0000
  Ni  Ni16      1.0  0.00031120403210366205  0.008750000084362232  0.9993389331690474  1.0000
  Ni  Ni17      1.0  0.006977870338913403  0.008750000084362232  0.9991168498873522  1.0000
  Ni  Ni18      1.0  0.003644537185508533  0.008750000084362232  0.9992278916701599  1.0000
