data_image0
_chemical_formula_structural       HAg24Ga12
_chemical_formula_sum              "H1 Ag24 Ga12"
_cell_length_a       8.494677408045288
_cell_length_b       9.920864120562058
_cell_length_c       101.61680603027344
_cell_angle_alpha    84.9779571945579
_cell_angle_beta     82.7648768263437
_cell_angle_gamma    80.3043157262122

_space_group_name_H-M_alt    "P 1"
_space_group_IT_number       1

loop_
  _space_group_symop_operation_xyz
  'x, y, z'

loop_
  _atom_site_type_symbol
  _atom_site_label
  _atom_site_symmetry_multiplicity
  _atom_site_fract_x
  _atom_site_fract_y
  _atom_site_fract_z
  _atom_site_occupancy
  H   H1        1.0  0.0008965827335341172  0.0035718574221705293  0.9999600340079067  1.0000
  Ag  Ag1       1.0  0.0025002058610375066  0.004577916760788155  0.9992462308362368  1.0000
  Ag  Ag2       1.0  0.0006252057987141728  0.006452916928789514  0.9994406916887044  1.0000
  Ag  Ag3       1.0  0.008750206461961016  0.008327916714969602  0.9996351528652715  1.0000
  Ag  Ag4       1.0  0.006841525997378939  0.000308696769960663  0.999827612124311  1.0000
  Ag  Ag5       1.0  0.006684248836297164  0.0034491908480288294  0.9995325438675502  1.0000
  Ag  Ag6       1.0  0.004886424255312639  0.005277164762879339  0.9997373367219989  1.0000
  Ag  Ag7       1.0  0.0028126807455450607  0.007333810673049366  0.9999078898923293  1.0000
  Ag  Ag8       1.0  0.008559249009136474  0.0015741906800274706  0.999338083013919  1.0000
  Ag  Ag9       1.0  0.006128395041867882  0.007060361733684099  0.9991868168327691  1.0000
  Ag  Ag10      1.0  0.004253394940344162  0.008935361519864187  0.9993812776889127  1.0000
  Ag  Ag11      1.0  0.0023783948246943894  0.0008103615236824002  0.999575738731045  1.0000
  Ag  Ag12      1.0  0.00044306890032426644  0.00266159284031235  0.9997776973806376  1.0000
  Ag  Ag13      1.0  0.007899926663889903  0.008623022556803275  0.9993488841982674  1.0000
  Ag  Ag14      1.0  0.006024926327208176  0.0004980225606214882  0.9995433452427268  1.0000
  Ag  Ag15      1.0  0.004070925725063378  0.002419897494184587  0.9997506538638438  1.0000
  Ag  Ag16      1.0  0.001821629444793693  0.004722952334067929  0.9998963524230944  1.0000
  Ag  Ag17      1.0  0.004288039767379524  0.005845399959674786  0.9994352632265118  1.0000
  Ag  Ag18      1.0  0.0024130395945402123  0.007720400127676145  0.9996297243734243  1.0000
  Ag  Ag19      1.0  0.0004860432680737586  0.009678314693694545  0.9998162640908019  1.0000
  Ag  Ag20      1.0  0.006163039426839333  0.003970400173494698  0.9992408023750223  1.0000
  Ag  Ag21      1.0  0.0003123836690270473  0.003431546123471884  0.9994731352472098  1.0000
  Ag  Ag22      1.0  0.008508319176294585  0.005306459236223546  0.9996995412637772  1.0000
  Ag  Ag23      1.0  0.00632541224906117  0.007461694834853808  0.9998477480678908  1.0000
  Ag  Ag24      1.0  0.0021873837883796647  0.001556546241836478  0.9992786743916944  1.0000
  Ga  Ga1       1.0  0.0038542830563698797  0.0029458228850742655  0.999451504774157  1.0000
  Ga  Ga2       1.0  0.0020072716984256165  0.004769279090651041  0.9996357114236372  1.0000
  Ga  Ga3       1.0  0.009671211080684113  0.007053483605315518  0.9998803520119198  1.0000
  Ga  Ga4       1.0  0.005729283193551395  0.0010708229079835418  0.9992570436259882  1.0000
  Ga  Ga5       1.0  0.007812616542945851  0.005654156376227057  0.9993866844359436  1.0000
  Ga  Ga6       1.0  0.00593761637010654  0.007529156544228416  0.9995811449962932  1.0000
  Ga  Ga7       1.0  0.0038270222004016348  0.0096913034896778  0.9998189882093784  1.0000
  Ga  Ga8       1.0  0.009687616715785163  0.003779156208225698  0.999192223289031  1.0000
  Ga  Ga9       1.0  0.002708449939408598  0.007424989592468534  0.9992246334925703  1.0000
  Ga  Ga10      1.0  0.0008334494742217393  0.009299990142291164  0.9994190946392976  1.0000
  Ga  Ga11      1.0  0.008958450119799942  0.001174989573377471  0.9996135551269414  1.0000
  Ga  Ga12      1.0  0.007107092962085232  0.0029955694238675023  0.9998099112010876  1.0000
