data_image0
_chemical_formula_structural       COAl4Cu4Pt8Al4Cu4Pt8
_chemical_formula_sum              "C1 O1 Al8 Cu8 Pt16"
_cell_length_a       5.368371774437215
_cell_length_b       9.003072677114323
_cell_length_c       102.21023559570312
_cell_angle_alpha    70.40242874143743
_cell_angle_beta     82.81868421396442
_cell_angle_gamma    70.40242751472518

_space_group_name_H-M_alt    "P 1"
_space_group_IT_number       1

loop_
  _space_group_symop_operation_xyz
  'x, y, z'

loop_
  _atom_site_type_symbol
  _atom_site_label
  _atom_site_symmetry_multiplicity
  _atom_site_fract_x
  _atom_site_fract_y
  _atom_site_fract_z
  _atom_site_occupancy
  C   C1        1.0  0.007243391724227218  0.007241294659078869  0.999837944985142  1.0000
  O   O1        1.0  0.007243391724227218  0.007241294659078869  0.9999553502943926  1.0000
  Al  Al1       1.0  0.0081250003241376  0.00624999930360456  0.9996142788373656  1.0000
  Al  Al2       1.0  0.0006250000497256546  0.0012499999638416388  0.9992203575215786  1.0000
  Al  Al3       1.0  0.005625000309404073  0.0012499998511466875  0.9994829714342338  1.0000
  Al  Al4       1.0  0.003125000294670546  0.006249999590517851  0.9993516643348944  1.0000
  Cu  Cu1       1.0  0.004375000117868218  0.00875000001189648  0.9994173180171317  1.0000
  Cu  Cu2       1.0  0.0068750005009399285  0.0037499997606726307  0.9995486251291751  1.0000
  Cu  Cu3       1.0  0.001875000103134691  0.003749999680991907  0.9992860106399531  1.0000
  Cu  Cu4       1.0  0.009375000147335272  0.00874999972498319  0.9996799319364457  1.0000
  Pt  Pt1       1.0  0.0081250003241376  0.00624999930360456  0.99935166444523  1.0000
  Pt  Pt2       1.0  0.0006250000497256546  0.0012499999638416388  0.9994829713305567  1.0000
  Pt  Pt3       1.0  0.005625000309404073  0.0012499998511466875  0.9992203570420983  1.0000
  Pt  Pt4       1.0  0.003125000294670546  0.006249999590517851  0.9996142787270299  1.0000
  Pt  Pt5       1.0  0.009375000147335272  0.00874999972498319  0.9994173181274675  1.0000
  Pt  Pt6       1.0  0.001875000103134691  0.003749999680991907  0.9995486250320886  1.0000
  Pt  Pt7       1.0  0.0068750005009399285  0.0037499997606726307  0.9992860107370396  1.0000
  Pt  Pt8       1.0  0.004375000117868218  0.00875000001189648  0.9996799324092672  1.0000
  Al  Al5       1.0  0.0081250003241376  0.00624999930360456  0.9990890500530946  1.0000
  Al  Al6       1.0  0.0006250000497256546  0.0012499999638416388  0.9986951287373076  1.0000
  Al  Al7       1.0  0.005625000309404073  0.0012499998511466875  0.9989577432331201  1.0000
  Al  Al8       1.0  0.003125000294670546  0.006249999590517851  0.998826435842202  1.0000
  Cu  Cu5       1.0  0.004375000117868218  0.00875000001189648  0.9988920895244394  1.0000
  Cu  Cu6       1.0  0.0068750005009399285  0.0037499997606726307  0.9990233966364828  1.0000
  Cu  Cu7       1.0  0.001875000103134691  0.003749999680991907  0.9987607824388394  1.0000
  Cu  Cu8       1.0  0.009375000147335272  0.00874999972498319  0.999154703735332  1.0000
  Pt  Pt9       1.0  0.0081250003241376  0.00624999930360456  0.9988264359525377  1.0000
  Pt  Pt10      1.0  0.0006250000497256546  0.0012499999638416388  0.9989577431294431  1.0000
  Pt  Pt11      1.0  0.005625000309404073  0.0012499998511466875  0.9986951288409845  1.0000
  Pt  Pt12      1.0  0.003125000294670546  0.006249999590517851  0.9990890499427589  1.0000
  Pt  Pt13      1.0  0.009375000147335272  0.00874999972498319  0.9988920896347752  1.0000
  Pt  Pt14      1.0  0.001875000103134691  0.003749999680991907  0.9990233965393962  1.0000
  Pt  Pt15      1.0  0.0068750005009399285  0.0037499997606726307  0.9987607825359259  1.0000
  Pt  Pt16      1.0  0.004375000117868218  0.00875000001189648  0.9991547036249963  1.0000
