data_image0
_chemical_formula_structural       HCu6Pt6Zn12
_chemical_formula_sum              "H1 Cu6 Pt6 Zn12"
_cell_length_a       7.512110925618832
_cell_length_b       6.133612632751465
_cell_length_c       103.030517578125
_cell_angle_alpha    90.0
_cell_angle_beta     85.65224711450091
_cell_angle_gamma    114.09484149282649

_space_group_name_H-M_alt    "P 1"
_space_group_IT_number       1

loop_
  _space_group_symop_operation_xyz
  'x, y, z'

loop_
  _atom_site_type_symbol
  _atom_site_label
  _atom_site_symmetry_multiplicity
  _atom_site_fract_x
  _atom_site_fract_y
  _atom_site_fract_z
  _atom_site_occupancy
  H   H1        1.0  0.00024913168557337854  0.00763851969130149  2.020732242344382e-05  1.0000
  Cu  Cu1       1.0  0.0013881585230011008  0.0057183656189179356  0.9999144364735039  1.0000
  Cu  Cu2       1.0  0.008084201597790691  0.004062500048067961  0.9993915419877637  1.0000
  Cu  Cu3       1.0  0.009750868213579563  0.009895833381775054  0.9996586998870796  1.0000
  Cu  Cu4       1.0  0.005794911789067709  0.0029187969948830097  0.9997906689421249  1.0000
  Cu  Cu5       1.0  0.002250868169970025  0.0011458332843354041  0.9992579629924875  1.0000
  Cu  Cu6       1.0  0.003917534785758897  0.00697916666786472  0.9995251211810606  1.0000
  Pt  Pt1       1.0  0.0014742152694682223  0.0007574481340152064  0.9999100934336239  1.0000
  Pt  Pt2       1.0  0.008084201597790691  0.009062500073880618  0.9993915419877637  1.0000
  Pt  Pt3       1.0  0.009750868213579563  0.004895833306140174  0.9996586998870796  1.0000
  Pt  Pt4       1.0  0.005799186614076586  0.007920745704244787  0.9997949107005782  1.0000
  Pt  Pt5       1.0  0.002250868169970025  0.006145833359970285  0.9992579629924875  1.0000
  Pt  Pt6       1.0  0.003917534785758897  0.0019791665424076163  0.9995251211810606  1.0000
  Zn  Zn1       1.0  0.002759461141703299  0.0039364599516090995  0.9997198837429555  1.0000
  Zn  Zn2       1.0  0.004199769177329431  0.009615980584013589  0.9999768069921254  1.0000
  Zn  Zn3       1.0  0.0010008682762682752  0.008020833255206685  0.999458331537664  1.0000
  Zn  Zn4       1.0  0.008517463452764624  0.0018024419744049921  0.9998756026314142  1.0000
  Zn  Zn5       1.0  0.005167534611320743  0.00010416644702718445  0.9993247526362607  1.0000
  Zn  Zn6       1.0  0.006834201227109615  0.005937499894613646  0.9995919105355766  1.0000
  Zn  Zn7       1.0  0.008516456617545114  0.006755463159801678  0.9998756000974  1.0000
  Zn  Zn8       1.0  0.005167534611320743  0.005104166434880052  0.9993247526362607  1.0000
  Zn  Zn9       1.0  0.006834201227109615  0.0009374997549216203  0.9995919105355766  1.0000
  Zn  Zn10      1.0  0.0027588846781166007  0.008864471435425137  0.9997198464332919  1.0000
  Zn  Zn11      1.0  0.004197406358023007  0.00462537554302348  0.9999767992258691  1.0000
  Zn  Zn12      1.0  0.0010008682762682752  0.003020833419192976  0.999458331537664  1.0000
