data_image0
_chemical_formula_structural       HFe6Co2Fe6Co2Fe6Co2Fe6Co2
_chemical_formula_sum              "H1 Fe24 Co8"
_cell_length_a       7.865427494049072
_cell_length_b       4.811089988972728
_cell_length_c       103.67762756347656
_cell_angle_alpha    109.65605163844556
_cell_angle_beta     90.0
_cell_angle_gamma    90.0

_space_group_name_H-M_alt    "P 1"
_space_group_IT_number       1

loop_
  _space_group_symop_operation_xyz
  'x, y, z'

loop_
  _atom_site_type_symbol
  _atom_site_label
  _atom_site_symmetry_multiplicity
  _atom_site_fract_x
  _atom_site_fract_y
  _atom_site_fract_z
  _atom_site_occupancy
  H   H1        1.0  0.0024999976129125696  0.0012482773971350255  0.00021241877327466687  1.0000
  Fe  Fe1       1.0  2.3500000457735306e-09  3.7638048190478065e-05  0.9996329946901579  1.0000
  Fe  Fe2       1.0  2.3500000457735306e-09  0.0050376380154299434  0.9994009731209087  1.0000
  Fe  Fe3       1.0  2.3500000457735306e-09  3.7638048190478065e-05  0.9994009730696788  1.0000
  Fe  Fe4       1.0  2.3500000457735306e-09  0.0050376380154299434  0.9996329947413879  1.0000
  Fe  Fe5       1.0  0.0025000023491971533  0.0025376380976524617  0.999284962286082  1.0000
  Fe  Fe6       1.0  0.0025000023491971533  0.007537638344320015  0.9995169839621527  1.0000
  Co  Co1       1.0  0.0025000023491971533  0.007537638344320015  0.9992849623416735  1.0000
  Co  Co2       1.0  0.0025000023491971533  0.0025376380976524617  0.9995169839065611  1.0000
  Fe  Fe7       1.0  0.009999997082448695  0.009962361491234948  8.324677043910145e-05  1.0000
  Fe  Fe8       1.0  0.009999986662622612  0.0036274877080624377  0.9998625081289693  1.0000
  Fe  Fe9       1.0  0.009999988557136444  0.008562068430447116  0.9998668230087195  1.0000
  Fe  Fe10      1.0  0.009999997082448695  0.005172772368340042  8.074263880824372e-05  1.0000
  Fe  Fe11      1.0  0.0025000023491971533  0.0025376380976524617  0.9997490052395884  1.0000
  Fe  Fe12      1.0  0.002500014426722842  0.006899894182908135  0.9999902976165089  1.0000
  Co  Co3       1.0  0.0025000023491971533  0.007537638344320015  0.9997490055826318  1.0000
  Co  Co4       1.0  0.002499958064936295  0.0017520749099104315  0.9999709451995055  1.0000
  Fe  Fe13      1.0  0.005000002330252015  3.7638048190478065e-05  0.9996329946901579  1.0000
  Fe  Fe14      1.0  0.005000002330252015  0.0050376380154299434  0.9994009731209087  1.0000
  Fe  Fe15      1.0  0.005000002330252015  3.7638048190478065e-05  0.9994009730696788  1.0000
  Fe  Fe16      1.0  0.005000002330252015  0.0050376380154299434  0.9996329947413879  1.0000
  Fe  Fe17      1.0  0.0075000023113068765  0.0025376380976524617  0.999284962286082  1.0000
  Fe  Fe18      1.0  0.0075000023113068765  0.007537638344320015  0.9995169839621527  1.0000
  Co  Co5       1.0  0.0075000023113068765  0.007537638344320015  0.9992849623416735  1.0000
  Co  Co6       1.0  0.0075000023113068765  0.0025376380976524617  0.9995169839065611  1.0000
  Fe  Fe19      1.0  0.004999997593967431  0.009962361491234948  8.324677043910145e-05  1.0000
  Fe  Fe20      1.0  0.004999986700512889  0.0036274877080624377  0.9998625081289693  1.0000
  Fe  Fe21      1.0  0.004999988595026722  0.008562068430447116  0.9998668230087195  1.0000
  Fe  Fe22      1.0  0.004999997593967431  0.005172772368340042  8.074263880824372e-05  1.0000
  Fe  Fe23      1.0  0.0075000023113068765  0.0025376380976524617  0.9997490052395884  1.0000
  Fe  Fe24      1.0  0.007500014152018336  0.006899894182908135  0.9999902976165089  1.0000
  Co  Co7       1.0  0.0075000023113068765  0.007537638344320015  0.9997490055826318  1.0000
  Co  Co8       1.0  0.007499957790231789  0.0017520749099104315  0.9999709451995055  1.0000
