data_image0
_chemical_formula_structural       COGa3Ag6Ga3Ag6Ga3Ag6
_chemical_formula_sum              "C1 O1 Ga9 Ag18"
_cell_length_a       7.962718486785889
_cell_length_b       8.494677891364388
_cell_length_c       37.452884674072266
_cell_angle_alpha    110.3843232467431
_cell_angle_beta     90.0
_cell_angle_gamma    62.05079141346804

_space_group_name_H-M_alt    "P 1"
_space_group_IT_number       1

loop_
  _space_group_symop_operation_xyz
  'x, y, z'

loop_
  _atom_site_type_symbol
  _atom_site_label
  _atom_site_symmetry_multiplicity
  _atom_site_fract_x
  _atom_site_fract_y
  _atom_site_fract_z
  _atom_site_occupancy
  C   C1        1.0  0.00948666103668345  0.009507043044824689  0.000652340890773243  1.0000
  O   O1        1.0  0.00948666103668345  0.009507043044824689  0.0009727433009160322  1.0000
  Ga  Ga1       1.0  0.0033345940031638635  0.0033881339574437044  0.9999885582952777  1.0000
  Ga  Ga2       1.0  0.006713393840839461  0.006632125092960517  0.00017093154082875906  1.0000
  Ga  Ga3       1.0  0.009976356598920117  9.843715034464107e-05  9.689943797012347e-05  1.0000
  Ag  Ag1       1.0  0.009987345199523804  0.006934887468075345  0.00020131507414476068  1.0000
  Ag  Ag2       1.0  0.006843885645187125  0.003113465559835802  0.9999468226792961  1.0000
  Ag  Ag3       1.0  0.0031134985956708873  0.00992651494957227  0.9996947768488875  1.0000
  Ag  Ag4       1.0  0.006462042911774961  0.00997709329277126  6.848073293042231e-05  1.0000
  Ag  Ag5       1.0  0.0035965967500487255  0.006458288171204316  0.9998357971389992  1.0000
  Ag  Ag6       1.0  1.3271380864114868e-05  0.003547783974281183  0.0002802797459288478  1.0000
  Ga  Ga4       1.0  0.003345987765893538  0.0033562403646921874  0.999150199226142  1.0000
  Ga  Ga5       1.0  0.00667932133614657  0.006689573373895408  0.9994135370549637  1.0000
  Ga  Ga6       1.0  1.2654699760303778e-05  2.2906950326325554e-05  0.9992818680832963  1.0000
  Ag  Ag7       1.0  1.2654585340603549e-05  0.006967590035566149  0.9994355007483177  1.0000
  Ag  Ag8       1.0  0.006957337223571868  0.0030782239731298733  0.999128235554127  1.0000
  Ag  Ag9       1.0  0.0030679715562952495  2.2906950326325554e-05  0.9988868613653119  1.0000
  Ag  Ag10      1.0  0.006402163896557389  2.2906950326325554e-05  0.9992818680832963  1.0000
  Ag  Ag11      1.0  0.0036231454092273373  0.006412416197239829  0.9989966345441074  1.0000
  Ag  Ag12      1.0  9.18105229843998e-05  0.0034950490853999008  0.9995201155801547  1.0000
  Ga  Ga7       1.0  0.003345987765893538  0.0033562403646921874  0.9983601857901733  1.0000
  Ga  Ga8       1.0  0.00667932133614657  0.006689573373895408  0.998623523618995  1.0000
  Ga  Ga9       1.0  1.2654699760303778e-05  2.2906950326325554e-05  0.9984918546473275  1.0000
  Ag  Ag13      1.0  1.2654585340603549e-05  0.006967590035566149  0.9986454873123489  1.0000
  Ag  Ag14      1.0  0.006957337223571868  0.0030782239731298733  0.9983382221181583  1.0000
  Ag  Ag15      1.0  0.0030679715562952495  2.2906950326325554e-05  0.9980968479293432  1.0000
  Ag  Ag16      1.0  0.006402163896557389  2.2906950326325554e-05  0.9984918546473275  1.0000
  Ag  Ag17      1.0  0.0036231454092273373  0.006412416197239829  0.9982066209092065  1.0000
  Ag  Ag18      1.0  1.2654779279105129e-05  0.003633397541347766  0.9987770883010296  1.0000
