data_image0
_chemical_formula_structural       Si20Pt20H
_chemical_formula_sum              "Si20 Pt20 H1"
_cell_length_a       9.25136752356107
_cell_length_b       9.449347030875337
_cell_length_c       106.14514923095703
_cell_angle_alpha    83.69024446503366
_cell_angle_beta     86.10271961949387
_cell_angle_gamma    52.4562044630695

_space_group_name_H-M_alt    "P 1"
_space_group_IT_number       1

loop_
  _space_group_symop_operation_xyz
  'x, y, z'

loop_
  _atom_site_type_symbol
  _atom_site_label
  _atom_site_symmetry_multiplicity
  _atom_site_fract_x
  _atom_site_fract_y
  _atom_site_fract_z
  _atom_site_occupancy
  Si  Si1       1.0  0.0012846317789387324  0.0052859617188225185  0.9994555308003327  1.0000
  Si  Si2       1.0  0.009284631628750454  0.003285961904484619  0.9996257940532186  1.0000
  Si  Si3       1.0  0.0072762911377287545  0.0013279373215687393  0.9998106826767397  1.0000
  Si  Si4       1.0  0.003284631678133718  0.007285961782706252  0.9992852683775699  1.0000
  Si  Si5       1.0  0.0052846319809366  0.009285961846589986  0.9991150053908772  1.0000
  Si  Si6       1.0  0.004853703441232494  0.000726123665664448  0.9997265532491642  1.0000
  Si  Si7       1.0  0.0024425815107466846  0.009067227935309032  0.9998683718712054  1.0000
  Si  Si8       1.0  0.0008093735471249698  0.006714038165388215  0.9991921031453606  1.0000
  Si  Si9       1.0  0.006809373651869103  0.0027140380376207474  0.9995326288225378  1.0000
  Si  Si10      1.0  0.008809373954671983  0.004714038101504481  0.9993623663973841  1.0000
  Si  Si11      1.0  0.0069511466317153225  0.009286189432391111  0.9993987893730416  1.0000
  Si  Si12      1.0  0.004951147136128233  0.007286189368507377  0.9995690523549524  1.0000
  Si  Si13      1.0  0.0027948305761473736  0.005408549113686662  0.9997449055326645  1.0000
  Si  Si14      1.0  0.008951146783942087  0.0012861894264020101  0.9992285265002322  1.0000
  Si  Si15      1.0  0.0010175135308765734  0.003660191069379843  0.9999065215757564  1.0000
  Si  Si16      1.0  0.008946107419250966  0.0066604277346566125  0.9997816163679417  1.0000
  Si  Si17      1.0  0.006976697203363644  0.00487777560448865  0.9999208455331312  1.0000
  Si  Si18      1.0  0.005142859001090379  0.002713810451819623  0.9992488448403734  1.0000
  Si  Si19      1.0  0.0011428587001881315  0.008713810144379155  0.999589370701404  1.0000
  Si  Si20      1.0  0.003142858582691949  0.0007138105750952651  0.9994191078259198  1.0000
  Pt  Pt1       1.0  0.007741124901241802  0.009682560050549922  0.9996007805967574  1.0000
  Pt  Pt2       1.0  0.005633583186308993  0.007739372090455279  0.9997767654650949  1.0000
  Pt  Pt3       1.0  0.0038612501281871207  0.0060209785117798734  0.9999182173928539  1.0000
  Pt  Pt4       1.0  0.009741124822277469  0.0016825604188795726  0.9994305177216553  1.0000
  Pt  Pt5       1.0  0.0017411244917941529  0.003682560357990389  0.9992602550319352  1.0000
  Pt  Pt6       1.0  0.008352880838208667  0.00631743946233661  0.9995576421681726  1.0000
  Pt  Pt7       1.0  0.006392896743696205  0.004302700722371707  0.9997150064061503  1.0000
  Pt  Pt8       1.0  0.004203537733952465  0.0027130363606407974  0.9998819580978374  1.0000
  Pt  Pt9       1.0  0.00035288083426954854  0.008317439526220344  0.9993873794752972  1.0000
  Pt  Pt10      1.0  0.002352881005762237  0.0003174394890380145  0.999217116602679  1.0000
  Pt  Pt11      1.0  0.00022350560984779199  0.00846747047469511  0.999803612303732  1.0000
  Pt  Pt12      1.0  0.008289864219014719  0.006359451002677559  0.9991284083586318  1.0000
  Pt  Pt13      1.0  0.006289863916211838  0.004359450938793826  0.9992986713453246  1.0000
  Pt  Pt14      1.0  0.002289864002226317  0.0003594509981857339  0.9996391973127818  1.0000
  Pt  Pt15      1.0  0.0042898640170168515  0.0023594508749100918  0.9994689343296265  1.0000
  Pt  Pt16      1.0  0.0058041417165938655  0.0076405489454169076  0.9993489628680903  1.0000
  Pt  Pt17      1.0  0.0038041414137909837  0.005640548881533174  0.9995192258547831  1.0000
  Pt  Pt18      1.0  0.0017808139150262893  0.0036607031374323736  0.9996730783864782  1.0000
  Pt  Pt19      1.0  0.007804141520435751  0.009640548510208973  0.9991786998892365  1.0000
  Pt  Pt20      1.0  0.009776494302439187  0.002091630798878227  0.9998541963784838  1.0000
  H   H1        1.0  0.0068999054385873145  0.008693275516744342  0.9998954005448663  1.0000
