data_image0
_chemical_formula_structural       COCa16Cu8Ca16Cu8
_chemical_formula_sum              "C1 O1 Ca32 Cu16"
_cell_length_a       6.145880222320557
_cell_length_b       29.850168173117222
_cell_length_c       99.59038543701172
_cell_angle_alpha    98.14124435533577
_cell_angle_beta     90.0
_cell_angle_gamma    90.0

_space_group_name_H-M_alt    "P 1"
_space_group_IT_number       1

loop_
  _space_group_symop_operation_xyz
  'x, y, z'

loop_
  _atom_site_type_symbol
  _atom_site_label
  _atom_site_symmetry_multiplicity
  _atom_site_fract_x
  _atom_site_fract_y
  _atom_site_fract_z
  _atom_site_occupancy
  C   C1        1.0  0.0012238792264502754  0.0024755163338381625  0.0002727338091199979  1.0000
  O   O1        1.0  0.0012238792264502754  0.0024755163338381625  0.00039322761247298087  1.0000
  Ca  Ca1       1.0  0.006310894469209615  0.0008285283096016405  0.9996129766300651  1.0000
  Ca  Ca2       1.0  0.006310894469209615  0.00582852852644235  0.9994007474830674  1.0000
  Ca  Ca3       1.0  0.003689104864031649  0.004171471655098708  0.9995426414910245  1.0000
  Ca  Ca4       1.0  0.003689104864031649  0.009171471493728878  0.9993304123279731  1.0000
  Ca  Ca5       1.0  0.0013108949541250593  0.0016714717357836245  0.99964875607255  1.0000
  Ca  Ca6       1.0  0.0013108949541250593  0.006671471574413793  0.9994365269094988  1.0000
  Ca  Ca7       1.0  0.008689104682188357  0.003328528354986905  0.9995068620538907  1.0000
  Ca  Ca8       1.0  0.008689104682188357  0.008328528445757434  0.9997190912618251  1.0000
  Ca  Ca9       1.0  0.008678144380858021  0.004540159359485703  0.9993460615704941  1.0000
  Ca  Ca10      1.0  0.008678144380858021  0.00954015919811587  0.9995582907677262  1.0000
  Ca  Ca11      1.0  0.001321855406991472  0.00045984060521464667  0.9993850981903122  1.0000
  Ca  Ca12      1.0  0.001321855406991472  0.005459840822055357  0.9995973274035977  1.0000
  Ca  Ca13      1.0  0.0036781445627013126  0.0029598406505999117  0.999703441974421  1.0000
  Ca  Ca14      1.0  0.0036781445627013126  0.007959840741370442  0.9994912128220721  1.0000
  Ca  Ca15      1.0  0.006321855376684256  0.002040159440170618  0.9994521761520198  1.0000
  Ca  Ca16      1.0  0.006321855376684256  0.007040159278800787  0.9996644053492518  1.0000
  Cu  Cu1       1.0  0.008890325194965102  0.0025826495125372416  0.9996874317794174  1.0000
  Cu  Cu2       1.0  0.008890325194965102  0.00758264935116741  0.9994752026163662  1.0000
  Cu  Cu3       1.0  0.0011096742898122369  0.002417350578233288  0.9994681863470233  1.0000
  Cu  Cu4       1.0  0.0011096742898122369  0.007417350669003817  0.9996804155549577  1.0000
  Cu  Cu5       1.0  0.0038903256798805477  0.004917350245408012  0.9993620717547953  1.0000
  Cu  Cu6       1.0  0.0038903256798805477  0.00991735008403818  0.9995743009520274  1.0000
  Cu  Cu7       1.0  0.006109673956432869  8.264949866952187e-05  0.9993690879966464  1.0000
  Cu  Cu8       1.0  0.006109673956432869  0.0050826494318523254  0.9995813171978919  1.0000
  Ca  Ca17      1.0  0.006238203219528204  0.0008093408063379356  2.9265319681459078e-05  1.0000
  Ca  Ca18      1.0  0.006310894469209615  0.00582852852644235  0.9998252058433507  1.0000
  Ca  Ca19      1.0  0.003765879101754269  0.004179506864123955  0.9999615118922458  1.0000
  Ca  Ca20      1.0  0.003689104864031649  0.009171471493728878  0.9997548706882565  1.0000
  Ca  Ca21      1.0  0.0012243846750329451  0.0016807241524017349  6.729689595617686e-05  1.0000
  Ca  Ca22      1.0  0.001303381340851333  0.006669881577297149  0.9998552143944919  1.0000
  Ca  Ca23      1.0  0.00871828749977209  0.00331840920587776  0.9999248685124312  1.0000
  Ca  Ca24      1.0  0.008757509279341942  0.008296989216557861  0.00013119765237857222  1.0000
  Ca  Ca25      1.0  0.008678144380858021  0.004540159359485703  0.9997705199307774  1.0000
  Ca  Ca26      1.0  0.008701649444733024  0.009550572595026336  0.9999828033067043  1.0000
  Ca  Ca27      1.0  0.001321855406991472  0.00045984060521464667  0.9998095565505954  1.0000
  Ca  Ca28      1.0  0.0013218297973945686  0.005451279143956283  1.9491302514259347e-05  1.0000
  Ca  Ca29      1.0  0.0037225006876101  0.0029124715452542647  0.00012362230359190573  1.0000
  Ca  Ca30      1.0  0.0036757693862405822  0.007941276150868657  0.9999080677969246  1.0000
  Ca  Ca31      1.0  0.006321945692185762  0.002025594930426365  0.9998714306178977  1.0000
  Ca  Ca32      1.0  0.006288636850315136  0.007050527794726988  9.055048120945753e-05  1.0000
  Cu  Cu9       1.0  0.008724752028789235  0.0025843302801838554  0.00010021745463218274  1.0000
  Cu  Cu10      1.0  0.008797871216350263  0.007575195073533972  0.9999036666267495  1.0000
  Cu  Cu11      1.0  0.0011444839449830453  0.0024136995858056  0.9998953637251758  1.0000
  Cu  Cu12      1.0  0.0012536416695260514  0.007410170215802456  9.414389850757961e-05  1.0000
  Cu  Cu13      1.0  0.0038903256798805477  0.004917350245408012  0.9997865301150787  1.0000
  Cu  Cu14      1.0  0.0037179694558550436  0.00990687415631818  0.9999886617780371  1.0000
  Cu  Cu15      1.0  0.006109673956432869  8.264949866952187e-05  0.9997935463569297  1.0000
  Cu  Cu16      1.0  0.006291628172462311  0.0050920512416343456  0.9999960342745765  1.0000
