data_image0
_chemical_formula_structural       HRu16
_chemical_formula_sum              "H1 Ru16"
_cell_length_a       5.4659591569903805
_cell_length_b       5.080595745381398
_cell_length_c       105.56417083740234
_cell_angle_alpha    65.08499452030473
_cell_angle_beta     105.60253925132047
_cell_angle_gamma    74.39745917807693

_space_group_name_H-M_alt    "P 1"
_space_group_IT_number       1

loop_
  _space_group_symop_operation_xyz
  'x, y, z'

loop_
  _atom_site_type_symbol
  _atom_site_label
  _atom_site_symmetry_multiplicity
  _atom_site_fract_x
  _atom_site_fract_y
  _atom_site_fract_z
  _atom_site_occupancy
  H   H1        1.0  0.004865093065139795  0.0025207842509766096  0.00017271215738685097  1.0000
  Ru  Ru1       1.0  0.003364594079673848  0.00956594787715909  0.9993081630258324  1.0000
  Ru  Ru2       1.0  0.0033645939807200793  0.004565947211785975  0.9995488030595738  1.0000
  Ru  Ru3       1.0  0.0016979274978626425  0.0003992807118372337  0.9995086963771893  1.0000
  Ru  Ru4       1.0  0.001697927313639386  0.0053992807309442324  0.9992680563526073  1.0000
  Ru  Ru5       1.0  0.003386134892963706  0.009600719916445826  0.9997927815228564  1.0000
  Ru  Ru6       1.0  0.0032638280306646317  0.00474528819445963  1.887503861494582e-05  1.0000
  Ru  Ru7       1.0  0.001613864678690923  0.0006096209165080898  0.9999874528327595  1.0000
  Ru  Ru8       1.0  0.0017221960090830555  0.005414039425939383  0.9997545064704503  1.0000
  Ru  Ru9       1.0  0.008364593513578607  0.00956594787715909  0.9993081630857041  1.0000
  Ru  Ru10      1.0  0.008364594476053417  0.004565947211785975  0.9995488031342276  1.0000
  Ru  Ru11      1.0  0.00669792746248169  0.0003992807118372337  0.9995086964444521  1.0000
  Ru  Ru12      1.0  0.006697927455163196  0.0053992807309442324  0.9992680564223337  1.0000
  Ru  Ru13      1.0  0.008386135034487516  0.009600719916445826  0.9997927810279534  1.0000
  Ru  Ru14      1.0  0.008263827818378916  0.00474528819445963  1.887510341409125e-05  1.0000
  Ru  Ru15      1.0  0.006613864466405207  0.0006096209165080898  0.9999874528975586  1.0000
  Ru  Ru16      1.0  0.006722196150606865  0.005414039425939383  0.9997545065401767  1.0000
