data_image0
_chemical_formula_structural       Sb8V12H
_chemical_formula_sum              "Sb8 V12 H1"
_cell_length_a       5.544148921966553
_cell_length_b       7.579563691045594
_cell_length_c       37.26179122924805
_cell_angle_alpha    89.07049697351718
_cell_angle_beta     90.0
_cell_angle_gamma    111.45252018722802

_space_group_name_H-M_alt    "P 1"
_space_group_IT_number       1

loop_
  _space_group_symop_operation_xyz
  'x, y, z'

loop_
  _atom_site_type_symbol
  _atom_site_label
  _atom_site_symmetry_multiplicity
  _atom_site_fract_x
  _atom_site_fract_y
  _atom_site_fract_z
  _atom_site_occupancy
  Sb  Sb1       1.0  0.0075352752172551255  0.007587360207611872  0.9985466450995415  1.0000
  Sb  Sb2       1.0  0.004360934929266328  0.0012386796316342758  0.9988255426271685  1.0000
  Sb  Sb3       1.0  0.0006753533610194042  0.0038675168714222695  0.9982707578478757  1.0000
  Sb  Sb4       1.0  0.00550657093023222  0.0035299516335660598  0.9978462872917888  1.0000
  Sb  Sb5       1.0  0.0031544409814437385  0.008828179268051534  0.999803619745078  1.0000
  Sb  Sb6       1.0  0.00018445020187073227  0.002898607949215878  0.00010357053654470373  1.0000
  Sb  Sb7       1.0  0.006506864384097921  0.005530541900956765  0.9995926582686068  1.0000
  Sb  Sb8       1.0  0.001220856343200681  0.004958522835784823  0.99910142987927  1.0000
  V   V1        1.0  0.00453086020423346  0.006863220003684417  0.9979320130447278  1.0000
  V   V2        1.0  0.002510012788988191  0.007536835727359844  0.9985238516990853  1.0000
  V   V3        1.0  0.009815549942357855  0.006863220003684417  0.9979320130447278  1.0000
  V   V4        1.0  0.006366374725175611  0.0005342485013039121  0.9981850320949368  1.0000
  V   V5        1.0  0.0016510640030266816  0.0005342485013039121  0.9981850320949368  1.0000
  V   V6        1.0  0.009386197021567332  0.0012892041118863036  0.9988483360276247  1.0000
  V   V7        1.0  0.00024514570119340304  0.00829179120590318  0.999187155632209  1.0000
  V   V8        1.0  0.008472288164037136  0.009465750970539867  0.9997400073517948  1.0000
  V   V9        1.0  0.005529835355326315  0.00829179120590318  0.999187155632209  1.0000
  V   V10       1.0  0.002245197433019413  0.002037576651312109  0.9994545353131251  1.0000
  V   V11       1.0  0.00727654321097712  0.002035816966828409  0.99945432237195  1.0000
  V   V12       1.0  0.004976327775396976  0.002472072419513217  0.9999918426181252  1.0000
  H   H1        1.0  0.006044531352578338  0.007941491065286868  0.00011465214044684212  1.0000
