data_image0
_chemical_formula_structural       COCa18Cu6Sn21
_chemical_formula_sum              "C1 O1 Ca18 Cu6 Sn21"
_cell_length_a       15.633203444722866
_cell_length_b       7.633666499149148
_cell_length_c       103.64958953857422
_cell_angle_alpha    92.38330920317274
_cell_angle_beta     102.60708041993576
_cell_angle_gamma    76.52979047703795

_space_group_name_H-M_alt    "P 1"
_space_group_IT_number       1

loop_
  _space_group_symop_operation_xyz
  'x, y, z'

loop_
  _atom_site_type_symbol
  _atom_site_label
  _atom_site_symmetry_multiplicity
  _atom_site_fract_x
  _atom_site_fract_y
  _atom_site_fract_z
  _atom_site_occupancy
  C   C1        1.0  0.007817772548572797  0.0028290587648927327  0.00029935617972848033  1.0000
  O   O1        1.0  0.007817772548572797  0.0028290587648927327  0.0004151305380011138  1.0000
  Ca  Ca1       1.0  0.006601068241221341  0.009732782544109888  0.9998453985839636  1.0000
  Ca  Ca2       1.0  0.00771217957756927  0.0008438928723198327  0.9994846791112965  1.0000
  Ca  Ca3       1.0  0.005623313045374602  0.008681647576591721  0.0001832450861105588  1.0000
  Ca  Ca4       1.0  0.0001291856485983579  0.0022380643674210794  6.3296426931730015e-06  1.0000
  Ca  Ca5       1.0  0.0012603820886896702  0.003462249655433964  0.999654773512984  1.0000
  Ca  Ca6       1.0  0.0023714930487137085  0.004573361094257321  0.999294054083085  1.0000
  Ca  Ca7       1.0  0.006286588416292272  0.004703161170993504  0.9999352943016199  1.0000
  Ca  Ca8       1.0  0.007370135783921318  0.005898248888299057  0.9995767335401308  1.0000
  Ca  Ca9       1.0  0.00848124661850406  0.007009359896300872  0.9992160141047828  1.0000
  Ca  Ca10      1.0  0.005250960125676042  0.003386533748355608  0.9993023210602031  1.0000
  Ca  Ca11      1.0  0.002963182834980686  0.0011694774446831717  1.7817370525837763e-05  1.0000
  Ca  Ca12      1.0  0.004139848789328115  0.002275422970789606  0.9996630404797386  1.0000
  Ca  Ca13      1.0  0.009817046899775158  0.007501292510507185  9.88365482355731e-05  1.0000
  Ca  Ca14      1.0  0.0009183381696004222  0.008516605240591647  0.9997468282238988  1.0000
  Ca  Ca15      1.0  0.002029449255065757  0.009627716133375553  0.9993861085089275  1.0000
  Ca  Ca16      1.0  0.004490668957841577  0.007085075142121872  0.9995684665679271  1.0000
  Ca  Ca17      1.0  0.005601779792424319  0.008196186150123687  0.9992077471325791  1.0000
  Ca  Ca18      1.0  0.0033289262527687806  0.006038315331411224  0.9999365408487487  1.0000
  Cu  Cu1       1.0  0.00849206467591075  0.004498646546267431  0.0001495313240168198  1.0000
  Cu  Cu2       1.0  0.009813033781818819  0.00567206919497986  0.9998151102243068  1.0000
  Cu  Cu3       1.0  0.0009241446590516  0.0067831807499740045  0.9994543905275108  1.0000
  Cu  Cu4       1.0  0.00770637315083874  0.002577317334132998  0.9997771165221314  1.0000
  Cu  Cu5       1.0  0.008817484487186668  0.003688428600129496  0.9994163971040918  1.0000
  Cu  Cu6       1.0  0.006642687656325948  0.0012049917342249724  0.00010669464150714842  1.0000
  Sn  Sn1       1.0  0.00822834341718116  0.0013617372512437725  6.008678260228991e-05  1.0000
  Sn  Sn2       1.0  0.009282372942457666  0.0026537610164380013  0.9996867257047443  1.0000
  Sn  Sn3       1.0  0.0003934836628888271  0.003764872399228089  0.9993260062897886  1.0000
  Sn  Sn4       1.0  0.0037086225059620947  0.007177252145665956  0.9992429197868694  1.0000
  Sn  Sn5       1.0  0.0014751959184316386  0.005009042974463857  0.9999760137946144  1.0000
  Sn  Sn6       1.0  0.0025975114204967596  0.006066140764451553  0.9996036392128153  1.0000
  Sn  Sn7       1.0  0.0017787740166092787  0.008482480060259614  8.453647025548638e-05  1.0000
  Sn  Sn8       1.0  0.0028253946025929813  0.009596302551870623  0.9997145612242179  1.0000
  Sn  Sn9       1.0  0.003936505688058317  0.0007074137279442191  0.9993538417458884  1.0000
  Sn  Sn10      1.0  0.006033006326672932  0.0032943573484599266  0.9996278678348505  1.0000
  Sn  Sn11      1.0  0.007144117161255674  0.004405468844892236  0.9992671484009984  1.0000
  Sn  Sn12      1.0  0.004886285718616378  0.002293502367708446  1.683944557971472e-05  1.0000
  Sn  Sn13      1.0  0.007731503558406303  0.007853067566180259  0.00017305438915541388  1.0000
  Sn  Sn14      1.0  0.008759703215446186  0.009124693360237114  0.9997961133911307  1.0000
  Sn  Sn15      1.0  0.009870814050028928  0.00023580489574386344  0.999435393905643  1.0000
  Sn  Sn16      1.0  0.004694011808228782  0.008653084255969919  0.9998776652931232  1.0000
  Sn  Sn17      1.0  0.0058051231445767106  0.009764196010396912  0.9995169458765795  1.0000
  Sn  Sn18      1.0  0.006916233979159452  0.000875306569042669  0.9991562263880999  1.0000
  Sn  Sn19      1.0  0.008237033990199892  0.0055956255126748565  0.9999055007541644  1.0000
  Sn  Sn20      1.0  0.00934814532654782  0.006706737267101851  0.9995447813376206  1.0000
  Sn  Sn21      1.0  0.0004592561410599542  0.007817848362469976  0.9991840619248817  1.0000
