data_image0
_chemical_formula_structural       COV4Pt8V4Pt8
_chemical_formula_sum              "C1 O1 V8 Pt16"
_cell_length_a       4.7204005365902955
_cell_length_b       8.89078345883133
_cell_length_c       103.04280853271484
_cell_angle_alpha    100.38265067673956
_cell_angle_beta     71.26973210569625
_cell_angle_gamma    79.61735050755661

_space_group_name_H-M_alt    "P 1"
_space_group_IT_number       1

loop_
  _space_group_symop_operation_xyz
  'x, y, z'

loop_
  _atom_site_type_symbol
  _atom_site_label
  _atom_site_symmetry_multiplicity
  _atom_site_fract_x
  _atom_site_fract_y
  _atom_site_fract_z
  _atom_site_occupancy
  C   C1        1.0  0.002041872384943815  0.00010658120002127788  0.00011695591554443541  1.0000
  O   O1        1.0  0.002041872384943815  0.00010658120002127788  0.00023341260465811777  1.0000
  V   V1        1.0  2.4562904169218036e-05  9.848410277729157e-05  0.999572970637335  1.0000
  V   V2        1.0  0.005024563051562961  9.848410277729157e-05  0.9993439203239614  1.0000
  V   V3        1.0  0.007524563301719655  0.005098484235788251  0.9994584454779525  1.0000
  V   V4        1.0  0.0025245629850574806  0.005098484235788251  0.9992293950441472  1.0000
  Pt  Pt1       1.0  0.009222989442991273  0.001701631953245015  0.999380640415692  1.0000
  Pt  Pt2       1.0  0.004222989126329099  0.001701631953245015  0.9991515899818866  1.0000
  Pt  Pt3       1.0  0.00832613724416508  0.0034953363508974013  0.9991926750695698  1.0000
  Pt  Pt4       1.0  0.0033261369275029056  0.0034953363508974013  0.9994217253854335  1.0000
  Pt  Pt5       1.0  0.0067229893592742306  0.0067016321206791  0.999266115425889  1.0000
  Pt  Pt6       1.0  0.0017229890426120559  0.0067016321206791  0.9994951657417527  1.0000
  Pt  Pt7       1.0  0.005826137050294033  0.008495336738639494  0.9995362505452593  1.0000
  Pt  Pt8       1.0  0.000826136733631859  0.008495336738639494  0.9993072001114539  1.0000
  V   V5        1.0  0.00997543855725485  0.009901516046205998  7.22688927203444e-06  1.0000
  V   V6        1.0  0.005053918056153341  0.00017119639581880357  0.9998019031609211  1.0000
  V   V7        1.0  0.007537051219079889  0.005038125569698883  0.9999022186229307  1.0000
  V   V8        1.0  0.0025245629850574806  0.005098484235788251  0.9996874957938162  1.0000
  Pt  Pt9       1.0  0.009024621972852611  0.001803434410964489  0.9998571399486123  1.0000
  Pt  Pt10      1.0  0.004222989126329099  0.001701631953245015  0.9996096907315556  1.0000
  Pt  Pt11      1.0  0.00832613724416508  0.0034953363508974013  0.9996507761084615  1.0000
  Pt  Pt12      1.0  0.0032543079359059163  0.0035182743800384617  0.9998787133696456  1.0000
  Pt  Pt13      1.0  0.0067229893592742306  0.0067016321206791  0.9997242164647807  1.0000
  Pt  Pt14      1.0  0.001463952795035755  0.006753160401205627  0.9999493854995392  1.0000
  Pt  Pt15      1.0  0.005490142276984034  0.008676199919372204  0.9999909740829867  1.0000
  Pt  Pt16      1.0  0.0008210430744306546  0.008562087421262975  0.999763081912732  1.0000
