data_image0
_chemical_formula_structural       COCa6As6Ca6As6
_chemical_formula_sum              "C1 O1 Ca12 As12"
_cell_length_a       8.003506004300254
_cell_length_b       8.00350570678711
_cell_length_c       105.91693878173828
_cell_angle_alpha    90.0
_cell_angle_beta     90.0
_cell_angle_gamma    119.99999877033196

_space_group_name_H-M_alt    "P 1"
_space_group_IT_number       1

loop_
  _space_group_symop_operation_xyz
  'x, y, z'

loop_
  _atom_site_type_symbol
  _atom_site_label
  _atom_site_symmetry_multiplicity
  _atom_site_fract_x
  _atom_site_fract_y
  _atom_site_fract_z
  _atom_site_occupancy
  C   C1        1.0  7.921985303962086e-05  9.050658721841037e-09  4.3607977925114955e-05  1.0000
  O   O1        1.0  7.921985303962086e-05  9.050658721841037e-09  0.0001569045332893459  1.0000
  Ca  Ca1       1.0  0.0034125529625416806  0.00983608245840412  0.9996043081492529  1.0000
  Ca  Ca2       1.0  0.0002431389436595543  0.0034972542172608183  0.9996043081492529  1.0000
  Ca  Ca3       1.0  0.006581966981423807  0.006666668236142944  0.9996043081492529  1.0000
  Ca  Ca4       1.0  0.0034121759316939077  0.0033587907547271917  0.999880079326891  1.0000
  Ca  Ca5       1.0  0.006720469787380357  0.009974201849825122  0.9998800787641421  1.0000
  Ca  Ca6       1.0  0.00010501354645500322  0.006667035536344908  0.9998800787641421  1.0000
  As  As1       1.0  0.003412548662831371  0.006666666464385684  0.0  1.0000
  As  As2       1.0  0.0034125475879037935  0.00666666313417799  0.9997567776581648  1.0000
  As  As3       1.0  7.921965149070011e-05  1.4480213988779834e-09  0.9994806080542789  1.0000
  As  As4       1.0  7.922034851405108e-05  0.009999999272445314  0.9997466273555771  1.0000
  As  As5       1.0  0.0067458843000928114  0.0033333307723045864  0.999746889033833  1.0000
  As  As6       1.0  0.0067458864499479665  0.0033333347963406374  0.9994806080542789  1.0000
  Ca  Ca7       1.0  0.0034125529625416806  0.00983608245840412  0.9990391337637117  1.0000
  Ca  Ca8       1.0  0.0002431389436595543  0.0034972542172608183  0.9990391337637117  1.0000
  Ca  Ca9       1.0  0.006581966981423807  0.006666668236142944  0.9990391337637117  1.0000
  Ca  Ca10      1.0  0.0034125529625416806  0.0031748956719390184  0.9993217209564823  1.0000
  Ca  Ca11      1.0  0.006904325400218755  0.00015844056648043952  0.9993217209564823  1.0000
  Ca  Ca12      1.0  0.00992078071835157  0.006666668448966359  0.9993217209564823  1.0000
  As  As7       1.0  0.0034125529625416806  0.006666668614240839  0.999442735613526  1.0000
  As  As8       1.0  0.0034125529625416806  0.006666668614240839  0.9992007062994386  1.0000
  As  As9       1.0  7.921965149070011e-05  1.4480213988779834e-09  0.9989154333873632  1.0000
  As  As10      1.0  7.921965149070011e-05  1.4480213988779834e-09  0.9991628341400602  1.0000
  As  As11      1.0  0.0067458864499479665  0.0033333347963406374  0.9991628341400602  1.0000
  As  As12      1.0  0.0067458864499479665  0.0033333347963406374  0.9989154333873632  1.0000
