data_image0
_chemical_formula_structural       HPt6W2Pt6W2Pt6W2Pt6W2
_chemical_formula_sum              "H1 Pt24 W8"
_cell_length_a       7.869143009185791
_cell_length_b       8.08376407623291
_cell_length_c       101.47657012939453
_cell_angle_alpha    90.0
_cell_angle_beta     90.0
_cell_angle_gamma    90.0

_space_group_name_H-M_alt    "P 1"
_space_group_IT_number       1

loop_
  _space_group_symop_operation_xyz
  'x, y, z'

loop_
  _atom_site_type_symbol
  _atom_site_label
  _atom_site_symmetry_multiplicity
  _atom_site_fract_x
  _atom_site_fract_y
  _atom_site_fract_z
  _atom_site_occupancy
  H   H1        1.0  0.0025000000094680965  0.0022434918348248987  0.00012140950817236668  1.0000
  Pt  Pt1       1.0  1.0000000134343356e-10  0.0025000676323058226  0.9994152359400272  1.0000
  Pt  Pt2       1.0  0.0025000000094680965  0.0025000676323058226  0.999609101783232  1.0000
  Pt  Pt3       1.0  0.0025000000094680965  6.774999454156923e-08  0.9994152359400272  1.0000
  Pt  Pt4       1.0  0.0025000000094680965  0.007500067411104495  0.999609101783232  1.0000
  Pt  Pt5       1.0  1.0000000134343356e-10  0.007500067411104495  0.9994152359400272  1.0000
  Pt  Pt6       1.0  1.0000000134343356e-10  0.005000067521705159  0.999609101783232  1.0000
  W   W1        1.0  1.0000000134343356e-10  6.774999454156923e-08  0.999609101783232  1.0000
  W   W2        1.0  0.0025000000094680965  0.005000067521705159  0.9994152359400272  1.0000
  Pt  Pt7       1.0  0.010000000037872386  0.0025140482474454787  0.9998048874566123  1.0000
  Pt  Pt8       1.0  0.0025000000094680965  0.0022434918348248987  0.9999999970631327  1.0000
  Pt  Pt9       1.0  0.0024999997727656823  7.59499954637217e-08  0.9997955358836507  1.0000
  Pt  Pt10      1.0  0.0024999990626584393  0.007756659568266918  0.0  1.0000
  Pt  Pt11      1.0  0.010000000037872386  0.0074860782704970165  0.999804885694492  1.0000
  Pt  Pt12      1.0  0.00999999909106273  0.005000087337657396  0.9999996229062345  1.0000
  W   W3        1.0  0.010000000037872386  0.00999993135385476  0.9999812410535972  1.0000
  W   W4        1.0  0.0024999997727656823  0.0050000343415060634  0.999831974771398  1.0000
  Pt  Pt13      1.0  0.005000000018936193  0.0025000676323058226  0.9994152359400272  1.0000
  Pt  Pt14      1.0  0.007499999791701876  0.0025000676323058226  0.999609101783232  1.0000
  Pt  Pt15      1.0  0.007499999791701876  6.774999454156923e-08  0.9994152359400272  1.0000
  Pt  Pt16      1.0  0.007499999791701876  0.007500067411104495  0.999609101783232  1.0000
  Pt  Pt17      1.0  0.005000000018936193  0.007500067411104495  0.9994152359400272  1.0000
  Pt  Pt18      1.0  0.005000000018936193  0.005000067521705159  0.999609101783232  1.0000
  W   W5        1.0  0.005000000018936193  6.774999454156923e-08  0.999609101783232  1.0000
  W   W6        1.0  0.007499999791701876  0.005000067521705159  0.9994152359400272  1.0000
  Pt  Pt19      1.0  0.004999999545531365  0.0025140482474454787  0.9998048874566123  1.0000
  Pt  Pt20      1.0  0.007499999791701876  0.0022434918348248987  0.9999999970631327  1.0000
  Pt  Pt21      1.0  0.007499999791701876  7.59499954637217e-08  0.9997955358836507  1.0000
  Pt  Pt22      1.0  0.007499998844892219  0.007756659568266918  0.0  1.0000
  Pt  Pt23      1.0  0.005000000018936193  0.0074860782704970165  0.999804885694492  1.0000
  Pt  Pt24      1.0  0.004999999545531365  0.005000087337657396  0.9999996229062345  1.0000
  W   W7        1.0  0.004999999545531365  0.00999993135385476  0.9999812410535972  1.0000
  W   W8        1.0  0.007499999791701876  0.0050000343415060634  0.999831974771398  1.0000
