data_image0
_chemical_formula_structural       COGa6Mn12W6
_chemical_formula_sum              "C1 O1 Ga6 Mn12 W6"
_cell_length_a       5.922492504119873
_cell_length_b       7.253542536257248
_cell_length_c       101.89360046386719
_cell_angle_alpha    94.3477530209703
_cell_angle_beta     90.0
_cell_angle_gamma    114.09484178914744

_space_group_name_H-M_alt    "P 1"
_space_group_IT_number       1

loop_
  _space_group_symop_operation_xyz
  'x, y, z'

loop_
  _atom_site_type_symbol
  _atom_site_label
  _atom_site_symmetry_multiplicity
  _atom_site_fract_x
  _atom_site_fract_y
  _atom_site_fract_z
  _atom_site_occupancy
  C   C1        1.0  0.00881504885716253  0.0021576005047015466  0.00017208818621000148  1.0000
  O   O1        1.0  0.00881504885716253  0.0021576005047015466  0.00028985833334451593  1.0000
  Ga  Ga1       1.0  0.0070109779991040875  0.0035506860570703636  0.9997434003778202  1.0000
  Ga  Ga2       1.0  0.002858500058860057  0.005242778672046951  0.9994881785510319  1.0000
  Ga  Ga3       1.0  0.0011519842243920113  0.0018325259961374943  9.889600785687463e-06  1.0000
  Ga  Ga4       1.0  0.009941833642906319  0.009409445413987111  0.9996185989971362  1.0000
  Ga  Ga5       1.0  0.005775166900966158  0.001076111930106791  0.9993577581049276  1.0000
  Ga  Ga6       1.0  0.00408405469216493  0.007697214128615495  0.9998994575250102  1.0000
  Mn  Mn1       1.0  0.009733500354840765  0.003992778762375143  0.999292548078937  1.0000
  Mn  Mn2       1.0  0.007967037592687349  0.0005905546396452531  0.9998174136165081  1.0000
  Mn  Mn3       1.0  0.003900166888630532  0.002326111980916399  0.9995533888702689  1.0000
  Mn  Mn4       1.0  0.001816833417597328  0.008159445504315303  0.9994229685250413  1.0000
  Mn  Mn5       1.0  5.8166682548262686e-05  0.004629371493820902  0.999935749181923  1.0000
  Mn  Mn6       1.0  0.005983500189031712  0.006492778581718759  0.9996838090231268  1.0000
  Mn  Mn7       1.0  0.005044266419154135  0.0046297280079035  0.999935734726779  1.0000
  Mn  Mn8       1.0  0.0009834999562990565  0.006492778581718759  0.9996838090231268  1.0000
  Mn  Mn9       1.0  0.006816833650329983  0.008159445504315303  0.9994229685250413  1.0000
  Mn  Mn10      1.0  0.008900166964111392  0.002326111980916399  0.9995533888702689  1.0000
  Mn  Mn11      1.0  0.004733500279359904  0.003992778762375143  0.999292548078937  1.0000
  Mn  Mn12      1.0  0.0030968526283739056  0.0005908483474068872  0.999817422806165  1.0000
  W   W1        1.0  0.0020235860804510364  0.0035727317814179156  0.999746003132415  1.0000
  W   W2        1.0  0.007858500271936238  0.005242778672046951  0.9994881785510319  1.0000
  W   W3        1.0  0.006260130866247435  0.002046711640335758  0.9999931360722688  1.0000
  W   W4        1.0  0.0049418333905171885  0.009409445413987111  0.9996185989971362  1.0000
  W   W5        1.0  0.0007751667468594002  0.001076111930106791  0.9993577581049276  1.0000
  W   W6        1.0  0.009063711351039866  0.007657473676016334  0.9998705438707036  1.0000
