data_image0
_chemical_formula_structural       HMn6Pb6Rh12
_chemical_formula_sum              "H1 Mn6 Pb6 Rh12"
_cell_length_a       6.347602367401123
_cell_length_b       7.7741933828455
_cell_length_c       104.1828842163086
_cell_angle_alpha    94.34775343603494
_cell_angle_beta     90.0
_cell_angle_gamma    114.09484275732439

_space_group_name_H-M_alt    "P 1"
_space_group_IT_number       1

loop_
  _space_group_symop_operation_xyz
  'x, y, z'

loop_
  _atom_site_type_symbol
  _atom_site_label
  _atom_site_symmetry_multiplicity
  _atom_site_fract_x
  _atom_site_fract_y
  _atom_site_fract_z
  _atom_site_occupancy
  H   H1        1.0  0.00879035587359944  0.007875652182765978  3.3259962483857576e-05  1.0000
  Mn  Mn1       1.0  0.0029815044841615904  0.003998037472123957  0.9998819078525629  1.0000
  Mn  Mn2       1.0  0.0077253357086725545  0.005401657047706903  0.9995323239543069  1.0000
  Mn  Mn3       1.0  0.006121726945925852  0.0019220349600353487  2.607172727279723e-05  1.0000
  Mn  Mn4       1.0  0.004808668857278289  0.00956832367925742  0.999669034537636  1.0000
  Mn  Mn5       1.0  0.0006420023311830394  0.001234990416156387  0.9993956139430934  1.0000
  Mn  Mn6       1.0  0.008688664330174168  0.007672269095915434  0.9999144252670972  1.0000
  Pb  Pb1       1.0  0.0027253355942306644  0.005401657047706903  0.9995323239543069  1.0000
  Pb  Pb2       1.0  0.0019622489336710495  0.0023770853578496433  0.00014411772799138858  1.0000
  Pb  Pb3       1.0  0.006939620722048004  0.003468541405851994  0.9997964626500406  1.0000
  Pb  Pb4       1.0  0.0056420023928972956  0.001234990416156387  0.9993956139430934  1.0000
  Pb  Pb5       1.0  0.004426914798291833  0.008061536365071861  2.7318536940266427e-05  1.0000
  Pb  Pb6       1.0  0.00980866902444781  0.00956832367925742  0.999669034537636  1.0000
  Rh  Rh1       1.0  0.0037670022673917227  0.002484990352947316  0.999600679469037  1.0000
  Rh  Rh2       1.0  0.009600335834178127  0.004151657110915974  0.9993272587144211  1.0000
  Rh  Rh3       1.0  0.00897990775842425  0.0008632571457475432  0.9999362936400777  1.0000
  Rh  Rh4       1.0  0.008767002455193797  0.002484990352947316  0.999600679469037  1.0000
  Rh  Rh5       1.0  0.004600335646376051  0.004151657110915974  0.9993272587144211  1.0000
  Rh  Rh6       1.0  0.0030411445680293414  0.00043167624304809785  0.9998762264336538  1.0000
  Rh  Rh7       1.0  0.0066836689621513085  0.00831832374246649  0.9994639690116924  1.0000
  Rh  Rh8       1.0  0.00599524755133816  0.005105265500178941  2.888036648046668e-05  1.0000
  Rh  Rh9       1.0  0.0008503356888056481  0.006651656984497833  0.9997373894802505  1.0000
  Rh  Rh10      1.0  0.0016836687743492344  0.00831832374246649  0.9994639690116924  1.0000
  Rh  Rh11      1.0  0.00019133105633901935  0.004895533062153496  0.9999795355191796  1.0000
  Rh  Rh12      1.0  0.005850335583166982  0.006651656984497833  0.9997373894802505  1.0000
