data_image0
_chemical_formula_structural       COAl9Ni15
_chemical_formula_sum              "C1 O1 Al9 Ni15"
_cell_length_a       5.051436842089607
_cell_length_b       6.320256505366339
_cell_length_c       33.50747299194336
_cell_angle_alpha    86.67902187021822
_cell_angle_beta     86.24148385306853
_cell_angle_gamma    95.42955667325073

_space_group_name_H-M_alt    "P 1"
_space_group_IT_number       1

loop_
  _space_group_symop_operation_xyz
  'x, y, z'

loop_
  _atom_site_type_symbol
  _atom_site_label
  _atom_site_symmetry_multiplicity
  _atom_site_fract_x
  _atom_site_fract_y
  _atom_site_fract_z
  _atom_site_occupancy
  C   C1        1.0  0.009786579247093809  0.009142617268659557  0.00014684624901219263  1.0000
  O   O1        1.0  0.009786579247093809  0.009142617268659557  0.0005049751511606177  1.0000
  Al  Al1       1.0  0.005024971612925143  0.004386833952190926  0.9989654753458002  1.0000
  Al  Al2       1.0  0.005071295889339309  0.007856795710239619  0.999864034544786  1.0000
  Al  Al3       1.0  0.005024971574435265  0.0010535005466709353  0.9980579034281655  1.0000
  Al  Al4       1.0  0.007819147296108976  0.007524049833104766  0.9978577088521572  1.0000
  Al  Al5       1.0  0.007819147958190217  0.0008573830220647863  0.9987652809616688  1.0000
  Al  Al6       1.0  0.00777375605176783  0.0041569855064825315  0.9996798666358663  1.0000
  Al  Al7       1.0  0.0022307953864193638  0.004582951254303955  0.998258097813174  1.0000
  Al  Al8       1.0  0.002295116848197874  0.007930070704350136  0.9991603963136354  1.0000
  Al  Al9       1.0  0.0022307953571015114  0.0012496179229483377  0.9973505258946382  1.0000
  Ni  Ni1       1.0  0.009975028076593326  0.001056353946768311  0.9994344313029815  1.0000
  Ni  Ni2       1.0  2.4971707155421377e-05  0.004386833952190926  0.997604117346591  1.0000
  Ni  Ni3       1.0  2.4971671937909016e-05  0.007720167135217795  0.9985116892673853  1.0000
  Ni  Ni4       1.0  2.4971703309026816e-05  0.0010535005466709353  0.9980579036270121  1.0000
  Ni  Ni5       1.0  2.4971707155421377e-05  0.004386833952190926  0.9989654751002776  1.0000
  Ni  Ni6       1.0  9.17388352697408e-05  0.007585068719545379  0.9998210374516155  1.0000
  Ni  Ni7       1.0  0.005024971623898944  0.007720167135217795  0.9985116890677398  1.0000
  Ni  Ni8       1.0  0.005004865963788191  0.001097981297021874  0.9994201176360545  1.0000
  Ni  Ni9       1.0  0.005024971612925143  0.004386833952190926  0.9976041175921136  1.0000
  Ni  Ni10      1.0  0.002794585970381049  0.0012332433934661078  0.9987141129656146  1.0000
  Ni  Ni11      1.0  0.0027996962528011237  0.004511642506057699  0.9996157027152467  1.0000
  Ni  Ni12      1.0  0.00279458603818878  0.007899910130341714  0.9978065408497004  1.0000
  Ni  Ni13      1.0  0.007255356829104808  0.0042070909570670065  0.9983092658138049  1.0000
  Ni  Ni14      1.0  0.007296041094728935  0.007550706288804699  0.9992041613591817  1.0000
  Ni  Ni15      1.0  0.007255356781442904  0.0008737574773826429  0.9974016938970711  1.0000
