data_image0
_chemical_formula_structural       COCa20Sb12
_chemical_formula_sum              "C1 O1 Ca20 Sb12"
_cell_length_a       7.0754876136779785
_cell_length_b       15.931220054626465
_cell_length_c       106.79158020019531
_cell_angle_alpha    90.0
_cell_angle_beta     90.0
_cell_angle_gamma    90.0

_space_group_name_H-M_alt    "P 1"
_space_group_IT_number       1

loop_
  _space_group_symop_operation_xyz
  'x, y, z'

loop_
  _atom_site_type_symbol
  _atom_site_label
  _atom_site_symmetry_multiplicity
  _atom_site_fract_x
  _atom_site_fract_y
  _atom_site_fract_z
  _atom_site_occupancy
  C   C1        1.0  0.007521330842673923  0.0006196329529254398  0.00016218764882243013  1.0000
  O   O1        1.0  0.007521330842673923  0.0006196329529254398  0.00027455628590223913  1.0000
  Ca  Ca1       1.0  0.00997865150882782  0.00411658604380879  0.9998850957332319  1.0000
  Ca  Ca2       1.0  2.1331750650855764e-05  0.008952962778721103  0.9994597691088536  1.0000
  Ca  Ca3       1.0  0.00506399385481818  0.007122655730182918  0.9998850879192729  1.0000
  Ca  Ca4       1.0  0.0050213315587227785  0.0022862958314514227  0.9994597691088536  1.0000
  Ca  Ca5       1.0  0.009978668357036178  0.007122654327167849  0.9998850879192729  1.0000
  Ca  Ca6       1.0  2.1331750650855764e-05  0.0022862958314514227  0.9994597691088536  1.0000
  Ca  Ca7       1.0  0.005064012282546071  0.00411658604380879  0.9998850957332319  1.0000
  Ca  Ca8       1.0  0.0050213315587227785  0.008952962778721103  0.9994597691088536  1.0000
  Ca  Ca9       1.0  0.007521331895686946  0.00687955764768174  0.9993512521954099  1.0000
  Ca  Ca10      1.0  0.007521334001712991  0.0019335991223785318  0.9997838056155628  1.0000
  Ca  Ca11      1.0  0.002521331748265123  0.005619629071250418  0.9992427352819662  1.0000
  Ca  Ca12      1.0  0.002521331748265123  0.0006196291530929636  0.9996733826542684  1.0000
  Ca  Ca13      1.0  0.0025213306952521007  0.001858895000484882  0.0  1.0000
  Ca  Ca14      1.0  0.002521331748265123  0.00687955764768174  0.9995682860222973  1.0000
  Ca  Ca15      1.0  0.007521331895686946  0.004359700494819096  0.9993512521954099  1.0000
  Ca  Ca16      1.0  0.007521335054726013  0.009305622775566376  0.9997838089644023  1.0000
  Ca  Ca17      1.0  0.007521331895686946  0.005619629071250418  0.999676802935741  1.0000
  Ca  Ca18      1.0  0.007521331895686946  0.0006196291530929636  0.9992461561215787  1.0000
  Ca  Ca19      1.0  0.002521331221758612  0.009380370741680907  0.9999999955348806  1.0000
  Ca  Ca20      1.0  0.002521331748265123  0.004359700494819096  0.9995682860222973  1.0000
  Sb  Sb1       1.0  0.007521331895686946  0.008674187426051753  0.999196682040311  1.0000
  Sb  Sb2       1.0  0.007521331895686946  0.003674187800189104  0.9996273288544733  1.0000
  Sb  Sb3       1.0  0.002521332274771634  0.005620090663207842  0.9997818951025927  1.0000
  Sb  Sb4       1.0  0.002521331748265123  0.0006196291530929636  0.9993642415068607  1.0000
  Sb  Sb5       1.0  0.002521331748265123  0.003674187800189104  0.9992922093632339  1.0000
  Sb  Sb6       1.0  0.0025213314850118674  0.008644269532738365  0.9997363787915472  1.0000
  Sb  Sb7       1.0  0.007521331895686946  0.002565070482613239  0.999196682040311  1.0000
  Sb  Sb8       1.0  0.007521331895686946  0.007565070342311732  0.9996273288544733  1.0000
  Sb  Sb9       1.0  0.0075213313691804345  0.005619630006593797  0.9999830749648542  1.0000
  Sb  Sb10      1.0  0.007521331895686946  0.0006196291530929636  0.9995552969899165  1.0000
  Sb  Sb11      1.0  0.002521331748265123  0.007565070342311732  0.9992922093632339  1.0000
  Sb  Sb12      1.0  0.002521331748265123  0.0025949584449385054  0.9997363826985267  1.0000
