data_image0
_chemical_formula_structural       HMo12As12
_chemical_formula_sum              "H1 Mo12 As12"
_cell_length_a       6.058877944946289
_cell_length_b       9.3706831443617
_cell_length_c       99.19551086425781
_cell_angle_alpha    74.10001281127909
_cell_angle_beta     90.0
_cell_angle_gamma    90.0

_space_group_name_H-M_alt    "P 1"
_space_group_IT_number       1

loop_
  _space_group_symop_operation_xyz
  'x, y, z'

loop_
  _atom_site_type_symbol
  _atom_site_label
  _atom_site_symmetry_multiplicity
  _atom_site_fract_x
  _atom_site_fract_y
  _atom_site_fract_z
  _atom_site_occupancy
  H   H1        1.0  0.0017248715149222578  0.001557489804310055  0.9999596921136745  1.0000
  Mo  Mo1       1.0  0.00506771272990798  0.0064188168832974655  0.9995533573632246  1.0000
  Mo  Mo2       1.0  0.00506771272990798  0.00975215001821703  0.9993080880089331  1.0000
  Mo  Mo3       1.0  0.005407429588762754  0.003212462153565591  0.9997789581072778  1.0000
  Mo  Mo4       1.0  0.004797437443473314  0.006858396388567812  0.9992501427028612  1.0000
  Mo  Mo5       1.0  0.004874445338045714  0.0003382402410154542  0.9997363227940386  1.0000
  Mo  Mo6       1.0  0.004797437443473314  0.0035250632536482475  0.9994954117567124  1.0000
  Mo  Mo7       1.0  6.771279696486375e-05  0.006858396388567812  0.999618046489631  1.0000
  Mo  Mo8       1.0  6.771279696486375e-05  0.00019173014456380928  0.9993727773235654  1.0000
  Mo  Mo9       1.0  0.00957620379115607  0.003740018530787838  0.9998366937367376  1.0000
  Mo  Mo10      1.0  0.00993228698726184  0.006458204083297169  0.9998739076148295  1.0000
  Mo  Mo11      1.0  0.009840001959053981  0.009808269699392028  0.9996723344856764  1.0000
  Mo  Mo12      1.0  0.009797437246721885  0.0030854837483779013  0.999430722630306  1.0000
  As  As1       1.0  0.006623803490614327  0.007695931083860876  0.9997507234361459  1.0000
  As  As2       1.0  0.006811159424299021  0.0010326663700777644  0.9994965305915589  1.0000
  As  As3       1.0  0.006811159424299021  0.004365999504997328  0.9992512615377076  1.0000
  As  As4       1.0  0.0033713320516420555  0.00534978870983854  0.9998186714701545  1.0000
  As  As5       1.0  0.0030539907490822723  0.008911213766867949  0.9995522385283782  1.0000
  As  As6       1.0  0.0030539907490822723  0.00224454749702882  0.9993069693629811  1.0000
  As  As7       1.0  0.0021404294401465625  0.008659859897127488  0.9999031748673202  1.0000
  As  As8       1.0  0.001756239226383611  0.002265701918404533  0.9996844787498751  1.0000
  As  As9       1.0  0.0018111593136263427  0.005577880631948385  0.9994296037954595  1.0000
  As  As10      1.0  0.008142828434012876  0.004458410304648205  0.9995975323357281  1.0000
  As  As11      1.0  0.008053990859754952  0.007699333053278912  0.9993738962599285  1.0000
  As  As12      1.0  0.008042313047578901  0.00095556184929543  0.9998781250827578  1.0000
