data_image0
_chemical_formula_structural       COAu4Sn16
_chemical_formula_sum              "C1 O1 Au4 Sn16"
_cell_length_a       6.6933817863464355
_cell_length_b       6.917362066800976
_cell_length_c       109.94754028320312
_cell_angle_alpha    90.0
_cell_angle_beta     90.0
_cell_angle_gamma    118.93455470153505

_space_group_name_H-M_alt    "P 1"
_space_group_IT_number       1

loop_
  _space_group_symop_operation_xyz
  'x, y, z'

loop_
  _atom_site_type_symbol
  _atom_site_label
  _atom_site_symmetry_multiplicity
  _atom_site_fract_x
  _atom_site_fract_y
  _atom_site_fract_z
  _atom_site_occupancy
  C   C1        1.0  0.0011985775295473577  0.008718215829995189  0.00012682168012948956  1.0000
  O   O1        1.0  0.0011985775295473577  0.008718215829995189  0.00023596431927485614  1.0000
  Au  Au1       1.0  0.00016027735860783766  1.350000018253344e-09  0.9994329500867529  1.0000
  Au  Au2       1.0  0.005160277554796382  1.350000018253344e-09  0.9991301728599608  1.0000
  Au  Au3       1.0  0.00016027806190543594  0.009999999113888765  0.0  1.0000
  Au  Au4       1.0  0.005160277554796382  1.350000018253344e-09  0.9997357273135451  1.0000
  Sn  Sn1       1.0  0.005480832160742463  0.007351128340570434  0.9989291500042433  1.0000
  Sn  Sn2       1.0  0.004839722701315583  0.002648874465448475  0.9989291500042433  1.0000
  Sn  Sn3       1.0  0.0004808318601983104  0.007351128340570434  0.999028418488886  1.0000
  Sn  Sn4       1.0  0.0021908496166140328  0.007351128340570434  0.9993311959867377  1.0000
  Sn  Sn5       1.0  0.003129705223181484  0.002648874465448475  0.9992319275020949  1.0000
  Sn  Sn6       1.0  0.008129705245444013  0.002648874465448475  0.9993311959867377  1.0000
  Sn  Sn7       1.0  0.007190849638876563  0.007351128340570434  0.9992319275020949  1.0000
  Sn  Sn8       1.0  0.009839723001859738  0.002648874465448475  0.999028418488886  1.0000
  Sn  Sn9       1.0  0.005480832160742463  0.007351128340570434  0.9995347047288871  1.0000
  Sn  Sn10      1.0  0.004839722701315583  0.002648874465448475  0.9995347047288871  1.0000
  Sn  Sn11      1.0  0.0004808318601983104  0.007351128340570434  0.9996339732135299  1.0000
  Sn  Sn12      1.0  0.002236877026585168  0.007436433161456635  0.999938574670579  1.0000
  Sn  Sn13      1.0  0.003306889534844261  0.0026966986271892168  0.9998289213553855  1.0000
  Sn  Sn14      1.0  0.008083680387530979  0.0025635691830460062  0.999938574670579  1.0000
  Sn  Sn15      1.0  0.007013672168629451  0.00730331340915505  0.9998289208132666  1.0000
  Sn  Sn16      1.0  0.009839723001859738  0.002648874465448475  0.9996339732135299  1.0000
