data_image0
_chemical_formula_structural       COSi12W6Si12W6
_chemical_formula_sum              "C1 O1 Si24 W12"
_cell_length_a       4.624765778321152
_cell_length_b       14.10876939677
_cell_length_c       106.99813079833984
_cell_angle_alpha    109.1349172959095
_cell_angle_beta     120.00000067689335
_cell_angle_gamma    80.5668432520608

_space_group_name_H-M_alt    "P 1"
_space_group_IT_number       1

loop_
  _space_group_symop_operation_xyz
  'x, y, z'

loop_
  _atom_site_type_symbol
  _atom_site_label
  _atom_site_symmetry_multiplicity
  _atom_site_fract_x
  _atom_site_fract_y
  _atom_site_fract_z
  _atom_site_occupancy
  C   C1        1.0  0.00521868419203354  0.007941540357932026  0.00048081417582226065  1.0000
  O   O1        1.0  0.00521868419203354  0.007941540357932026  0.0005929653379455198  1.0000
  Si  Si1       1.0  0.008471748827510981  0.004176755383518837  0.9997062299232233  1.0000
  Si  Si2       1.0  0.008471748827510981  0.009176755674180487  0.9994901155833542  1.0000
  Si  Si3       1.0  0.0017442739749121935  0.0008434218564110695  0.9996328776639021  1.0000
  Si  Si4       1.0  0.0017442739749121935  0.00584342214707272  0.9998489920066153  1.0000
  Si  Si5       1.0  0.006835485809677289  0.0025100886199649532  0.9994927436760775  1.0000
  Si  Si6       1.0  0.006835485809677289  0.007510088910626604  0.9997088580187906  1.0000
  Si  Si7       1.0  0.0017442739749121935  0.004176755383518837  0.9995647818823021  1.0000
  Si  Si8       1.0  0.0017442739749121935  0.009176755674180487  0.9997808962250153  1.0000
  Si  Si9       1.0  0.008471748827510981  0.0008434218564110695  0.9997822103672549  1.0000
  Si  Si10      1.0  0.008471748827510981  0.00584342214707272  0.9995660960273857  1.0000
  Si  Si11      1.0  0.0033805368764806792  0.0025100886199649532  0.9996341916199287  1.0000
  Si  Si12      1.0  0.0033805368764806792  0.007510088910626604  0.9998503059626418  1.0000
  W   W1        1.0  0.00010801110241000916  0.0025100886199649532  0.9997795819896637  1.0000
  W   W2        1.0  0.00010801110241000916  0.007510088910626604  0.9995634676497945  1.0000
  W   W3        1.0  0.0051080113430789845  0.0008434218564110695  0.999491429673031  1.0000
  W   W4        1.0  0.0051080113430789845  0.00584342214707272  0.9997075440157441  1.0000
  W   W5        1.0  0.0051080113430789845  0.004176755383518837  0.9998516202427976  1.0000
  W   W6        1.0  0.0051080113430789845  0.009176755674180487  0.9996355059029284  1.0000
  Si  Si13      1.0  0.008450982001595582  0.004197042448835679  0.0001537098242748737  1.0000
  Si  Si14      1.0  0.008471748827510981  0.009176755674180487  0.9999223442659365  1.0000
  Si  Si15      1.0  0.0018224856948035459  0.0008232447674016358  7.350612265371986e-05  1.0000
  Si  Si16      1.0  0.001759718877318771  0.005748564158273908  0.000279346782795729  1.0000
  Si  Si17      1.0  0.006835485809677289  0.0025100886199649532  0.9999249723586598  1.0000
  Si  Si18      1.0  0.007118230232400045  0.0075964400154485325  0.00016515860284865922  1.0000
  Si  Si19      1.0  0.0017442739749121935  0.004176755383518837  0.9999970102863532  1.0000
  Si  Si20      1.0  0.0024625719237022854  0.00912183291934767  0.00022376292050895532  1.0000
  Si  Si21      1.0  0.008427962421061693  0.0008746097118321365  0.00021994348371868667  1.0000
  Si  Si22      1.0  0.008471748827510981  0.00584342214707272  0.999998324709968  1.0000
  Si  Si23      1.0  0.003461479549780051  0.00243617448002151  7.662994857485869e-05  1.0000
  Si  Si24      1.0  0.0031478769463799904  0.007567603025871856  0.00028563856245781275  1.0000
  W   W7        1.0  0.009891989698657256  0.0024786887771762385  0.00019612018220292656  1.0000
  W   W8        1.0  0.00010801110241000916  0.007510088910626604  0.9999956963323768  1.0000
  W   W9        1.0  0.0051080113430789845  0.0008434218564110695  0.9999236583556134  1.0000
  W   W10       1.0  0.005069892632859171  0.00587690972306688  0.00014063809250387918  1.0000
  W   W11       1.0  0.004707223787505333  0.0040884546097757326  0.00026262121751399585  1.0000
  W   W12       1.0  0.005197003986665062  0.009158997365228152  6.743467478088023e-05  1.0000
