data_image0
_chemical_formula_structural       COGa3Pt2Ga3Pt2Ga3Pt2Ga3Pt2
_chemical_formula_sum              "C1 O1 Ga12 Pt8"
_cell_length_a       8.627337317593398
_cell_length_b       5.3598151206970215
_cell_length_c       35.49065017700195
_cell_angle_alpha    90.0
_cell_angle_beta     59.999999470269074
_cell_angle_gamma    90.0

_space_group_name_H-M_alt    "P 1"
_space_group_IT_number       1

loop_
  _space_group_symop_operation_xyz
  'x, y, z'

loop_
  _atom_site_type_symbol
  _atom_site_label
  _atom_site_symmetry_multiplicity
  _atom_site_fract_x
  _atom_site_fract_y
  _atom_site_fract_z
  _atom_site_occupancy
  C   C1        1.0  0.003052862828076738  0.0041057986521679446  0.9994549435459827  1.0000
  O   O1        1.0  0.003052862828076738  0.0041057986521679446  0.9997930606122107  1.0000
  Ga  Ga1       1.0  0.0008141390230115381  0.00999843674198848  0.9981124515597084  1.0000
  Ga  Ga2       1.0  0.004181569470096  0.0065134311745447  0.9989061818715221  1.0000
  Ga  Ga3       1.0  0.002346389042608532  0.0034950238858284357  0.9985829522389568  1.0000
  Pt  Pt1       1.0  0.0042423683169742375  0.0016981659560309837  0.9988766473878177  1.0000
  Pt  Pt2       1.0  0.002439383022641664  0.00827068480959707  0.9985377241594156  1.0000
  Ga  Ga4       1.0  0.0007576316306727095  1.563099971182148e-06  0.9969244808988537  1.0000
  Ga  Ga5       1.0  0.004090965032979113  0.006437237324612843  0.9977347729021312  1.0000
  Ga  Ga6       1.0  0.0024242983629884423  0.00356588920531101  0.9973296268967049  1.0000
  Pt  Pt3       1.0  0.004090965032979113  0.001658072700068779  0.9977347729021312  1.0000
  Pt  Pt4       1.0  0.0024242983629884423  0.008345053482334663  0.9973296268967049  1.0000
  Ga  Ga7       1.0  0.005814139095308611  0.00999843674198848  0.9981124515341266  1.0000
  Ga  Ga8       1.0  0.00918156972936826  0.0065134311745447  0.9989061818232148  1.0000
  Ga  Ga9       1.0  0.007346389301880794  0.0034950238858284357  0.9985829521906493  1.0000
  Pt  Pt5       1.0  0.009242368077645995  0.0016981659560309837  0.9988766474001121  1.0000
  Pt  Pt6       1.0  0.007439383281913926  0.00827068480959707  0.9985377241111081  1.0000
  Ga  Ga10      1.0  0.005757631702969782  1.563099971182148e-06  0.996924480873272  1.0000
  Ga  Ga11      1.0  0.009090965042951121  0.006437237324612843  0.9977347728841247  1.0000
  Ga  Ga12      1.0  0.0074242981236602  0.00356588920531101  0.9973296269089993  1.0000
  Pt  Pt7       1.0  0.009090965042951121  0.001658072700068779  0.9977347728841247  1.0000
  Pt  Pt8       1.0  0.0074242981236602  0.008345053482334663  0.9973296269089993  1.0000
