data_image0
_chemical_formula_structural       HPt6Sn12
_chemical_formula_sum              "H1 Pt6 Sn12"
_cell_length_a       8.067198024035568
_cell_length_b       6.58683967590332
_cell_length_c       105.4712142944336
_cell_angle_alpha    90.0
_cell_angle_beta     85.65224699867802
_cell_angle_gamma    114.09484283068596

_space_group_name_H-M_alt    "P 1"
_space_group_IT_number       1

loop_
  _space_group_symop_operation_xyz
  'x, y, z'

loop_
  _atom_site_type_symbol
  _atom_site_label
  _atom_site_symmetry_multiplicity
  _atom_site_fract_x
  _atom_site_fract_y
  _atom_site_fract_z
  _atom_site_occupancy
  H   H1        1.0  0.009381168891523087  0.0036520020866836734  0.9999893691892632  1.0000
  Pt  Pt1       1.0  0.0035354979849560103  0.006979166732374125  0.9994866289456401  1.0000
  Pt  Pt2       1.0  0.005202164678695248  0.0028125000601559036  0.9997668885942814  1.0000
  Pt  Pt3       1.0  0.0018688314181194512  0.0011458333768462245  0.9992063690136994  1.0000
  Pt  Pt4       1.0  0.009368831920654061  0.00989583370022315  0.9996267585207161  1.0000
  Pt  Pt5       1.0  0.0010354979443471528  0.0057291667120696966  0.9999070186649033  1.0000
  Pt  Pt6       1.0  0.007702164719304106  0.004062500080460332  0.9993464988750183  1.0000
  Sn  Sn1       1.0  0.0022854979646515813  0.003854166597797467  0.9996968238052717  1.0000
  Sn  Sn2       1.0  0.0039521646583908195  0.009687499910733146  0.999977083453913  1.0000
  Sn  Sn3       1.0  0.0006188313343636829  0.008020833248719578  0.9994165635911354  1.0000
  Sn  Sn4       1.0  0.0022854979646515813  0.008854166563863527  0.9996968238052717  1.0000
  Sn  Sn5       1.0  0.0039521646583908195  0.004687499944667085  0.999977083453913  1.0000
  Sn  Sn6       1.0  0.0006188313343636829  0.0030208332826535175  0.9994165635911354  1.0000
  Sn  Sn7       1.0  0.008118831392738916  0.006770833311841133  0.9998369533832911  1.0000
  Sn  Sn8       1.0  0.004785498005260439  0.0051041666181018954  0.999276433803445  1.0000
  Sn  Sn9       1.0  0.006452164698999677  0.0009374999989054535  0.9995566937346498  1.0000
  Sn  Sn10      1.0  0.008118831392738916  0.001770833345775073  0.9998369533832911  1.0000
  Sn  Sn11      1.0  0.004785498005260439  0.00010416665203583451  0.999276433803445  1.0000
  Sn  Sn12      1.0  0.006452164698999677  0.005937499964971514  0.9995566937346498  1.0000
