data_image0
_chemical_formula_structural       Al2Sb2Al2Sb2Al2Sb2Al2Sb2H
_chemical_formula_sum              "Al8 Sb8 H1"
_cell_length_a       8.868927955627441
_cell_length_b       8.868927609806224
_cell_length_c       99.10594940185547
_cell_angle_alpha    90.0
_cell_angle_beta     90.0
_cell_angle_gamma    120.00000128985987

_space_group_name_H-M_alt    "P 1"
_space_group_IT_number       1

loop_
  _space_group_symop_operation_xyz
  'x, y, z'

loop_
  _atom_site_type_symbol
  _atom_site_label
  _atom_site_symmetry_multiplicity
  _atom_site_fract_x
  _atom_site_fract_y
  _atom_site_fract_z
  _atom_site_occupancy
  Al  Al1       1.0  0.003333334879236243  0.0016666662301499352  0.9993530743252605  1.0000
  Al  Al2       1.0  0.0016666651289195227  0.0033333339153556424  0.9997280778014883  1.0000
  Sb  Sb1       1.0  0.003333334879236243  0.0016666662301499352  0.9996285939383057  1.0000
  Sb  Sb2       1.0  0.0016666695513913793  0.0033333324602998703  0.0  1.0000
  Al  Al3       1.0  0.0033333350053107343  0.006666666375655513  0.9993530743252605  1.0000
  Al  Al4       1.0  0.0016666653875239816  0.008333334303370514  0.9997280778014883  1.0000
  Sb  Sb3       1.0  0.0033333350053107343  0.006666666375655513  0.9996285939383057  1.0000
  Sb  Sb4       1.0  0.0016666696679667873  0.008333332363296152  0.0  1.0000
  Al  Al5       1.0  0.008333334627213205  0.0016666662301499352  0.9993530743252605  1.0000
  Al  Al6       1.0  0.006666665025501187  0.0033333339153556424  0.9997280778014883  1.0000
  Sb  Sb5       1.0  0.008333334627213205  0.0016666662301499352  0.9996285939383057  1.0000
  Sb  Sb6       1.0  0.006666669338434087  0.0033333324602998703  0.0  1.0000
  Al  Al7       1.0  0.008333334615958313  0.006666666375655513  0.9993530743252605  1.0000
  Al  Al8       1.0  0.0066666651355009425  0.008333334303370514  0.9997280778014883  1.0000
  Sb  Sb7       1.0  0.008333334615958313  0.006666666375655513  0.9996285939383057  1.0000
  Sb  Sb8       1.0  0.006666669415943748  0.008333332363296152  0.0  1.0000
  H   H1        1.0  0.003333333231572743  0.0016666667151685258  0.99997007196489  1.0000
