data_image0
_chemical_formula_structural       CONb2Au4Nb2Au4Nb2Au4Nb2Au4
_chemical_formula_sum              "C1 O1 Nb8 Au16"
_cell_length_a       5.567785263061523
_cell_length_b       8.188304901123047
_cell_length_c       103.09264373779297
_cell_angle_alpha    90.0
_cell_angle_beta     90.0
_cell_angle_gamma    90.0

_space_group_name_H-M_alt    "P 1"
_space_group_IT_number       1

loop_
  _space_group_symop_operation_xyz
  'x, y, z'

loop_
  _atom_site_type_symbol
  _atom_site_label
  _atom_site_symmetry_multiplicity
  _atom_site_fract_x
  _atom_site_fract_y
  _atom_site_fract_z
  _atom_site_occupancy
  C   C1        1.0  0.0012499988491834705  0.009999999272075899  0.00013345744225797644  1.0000
  O   O1        1.0  0.0012499988491834705  0.009999999272075899  0.0002498572577925469  1.0000
  Nb  Nb1       1.0  0.001249998180104093  0.005000000545943075  0.999297812675138  1.0000
  Nb  Nb2       1.0  0.001249998180104093  5.500000055367649e-10  0.9995270976360769  1.0000
  Au  Au1       1.0  0.0037499982202488557  0.0066666673945907666  0.9995270976360769  1.0000
  Au  Au2       1.0  0.0037499982202488557  0.0016666671898621136  0.999297812675138  1.0000
  Au  Au3       1.0  0.0037499982202488557  0.0033333339247716646  0.9995270976360769  1.0000
  Au  Au4       1.0  0.0037499982202488557  0.008333333333333333  0.999297812675138  1.0000
  Nb  Nb3       1.0  0.0012499991837231594  0.005000001000895637  0.9997779062657561  1.0000
  Nb  Nb4       1.0  0.0012499988491834705  0.009999999272075899  0.9999654482313454  1.0000
  Au  Au5       1.0  0.0037500019001854325  0.006783177561215505  0.0  1.0000
  Au  Au6       1.0  0.0037500005620266777  0.0016995542320196923  0.9997548536374569  1.0000
  Au  Au7       1.0  0.0037499992238679224  0.00321682262076552  0.0  1.0000
  Au  Au8       1.0  0.0037499998929473  0.0083004439026748  0.9997548536374569  1.0000
  Nb  Nb5       1.0  0.006249998260393619  0.005000000545943075  0.999297812675138  1.0000
  Nb  Nb6       1.0  0.006249998260393619  5.500000055367649e-10  0.9995270976360769  1.0000
  Au  Au9       1.0  0.008749997965998693  0.0066666673945907666  0.9995270976360769  1.0000
  Au  Au10      1.0  0.008749997965998693  0.0016666671898621136  0.999297812675138  1.0000
  Au  Au11      1.0  0.008749997965998693  0.0033333339247716646  0.9995270976360769  1.0000
  Au  Au12      1.0  0.008749997965998693  0.008333333333333333  0.999297812675138  1.0000
  Nb  Nb7       1.0  0.0062499989294729965  0.005000001000895637  0.9997779062657561  1.0000
  Nb  Nb8       1.0  0.0062499989294729965  0.009999999272075899  0.9999654482313454  1.0000
  Au  Au13      1.0  0.008750001980474958  0.006783177561215505  0.0  1.0000
  Au  Au14      1.0  0.008750000642316203  0.0016995542320196923  0.9997548536374569  1.0000
  Au  Au15      1.0  0.008749999304157447  0.00321682262076552  0.0  1.0000
  Au  Au16      1.0  0.008749999973236826  0.0083004439026748  0.9997548536374569  1.0000
