data_image0
_chemical_formula_structural       COAg6Au18Ag6Au18
_chemical_formula_sum              "C1 O1 Ag12 Au36"
_cell_length_a       4.895831108093262
_cell_length_b       15.626971868444418
_cell_length_c       105.43864440917969
_cell_angle_alpha    79.10660521824731
_cell_angle_beta     90.0
_cell_angle_gamma    90.0

_space_group_name_H-M_alt    "P 1"
_space_group_IT_number       1

loop_
  _space_group_symop_operation_xyz
  'x, y, z'

loop_
  _atom_site_type_symbol
  _atom_site_label
  _atom_site_symmetry_multiplicity
  _atom_site_fract_x
  _atom_site_fract_y
  _atom_site_fract_z
  _atom_site_occupancy
  C   C1        1.0  0.0012499978542318128  0.007231408983326434  0.9999009849985301  1.0000
  O   O1        1.0  0.0012499978542318128  0.007231408983326434  1.4795493590336907e-05  1.0000
  Ag  Ag1       1.0  0.00374998405131163  0.00553907974053992  0.9987315004439395  1.0000
  Ag  Ag2       1.0  0.00374998405131163  0.00220574620004886  0.9991049523416448  1.0000
  Ag  Ag3       1.0  0.00374998405131163  0.008872413281030979  0.9989182263501707  1.0000
  Ag  Ag4       1.0  0.008749983838256632  0.007761301777183345  0.9992294362597838  1.0000
  Ag  Ag5       1.0  0.008749983838256632  0.004427968236692286  0.9990427103535527  1.0000
  Ag  Ag6       1.0  0.008749983838256632  0.001094635060345667  0.9988559844371224  1.0000
  Au  Au1       1.0  0.008749983838256632  0.006092862837327096  0.9991365695315262  1.0000
  Au  Au2       1.0  0.008749983838256632  0.0027595295395989967  0.9989498436184956  1.0000
  Au  Au3       1.0  0.008749983838256632  0.009426196377818155  0.9987631176338211  1.0000
  Au  Au4       1.0  0.008749983838256632  0.0044315130614396465  0.9987625218823026  1.0000
  Au  Au5       1.0  0.008749983838256632  0.001098179642330067  0.9991359740592588  1.0000
  Au  Au6       1.0  0.008749983838256632  0.007764846116404785  0.9989492480847836  1.0000
  Au  Au7       1.0  0.008749983838256632  0.006092862837327096  0.9988555871702236  1.0000
  Au  Au8       1.0  0.008749983838256632  0.0027595295395989967  0.99922903934378  1.0000
  Au  Au9       1.0  0.008749983838256632  0.009426196377818155  0.9990423133591054  1.0000
  Au  Au10      1.0  0.00374998405131163  0.007207518680396169  0.9988243668895463  1.0000
  Au  Au11      1.0  0.00374998405131163  0.0038741851399051097  0.9991978190699023  1.0000
  Au  Au12      1.0  0.00374998405131163  0.0005408517207955304  0.9990110928776207  1.0000
  Au  Au13      1.0  0.00374998405131163  0.008868867970757697  0.999198414552369  1.0000
  Au  Au14      1.0  0.00374998405131163  0.005535534915792559  0.9990116886325389  1.0000
  Au  Au15      1.0  0.00374998405131163  0.0022022016180644603  0.9988249627195083  1.0000
  Au  Au16      1.0  0.00374998405131163  0.007207518680396169  0.999105349250849  1.0000
  Au  Au17      1.0  0.00374998405131163  0.0038741851399051097  0.9989186233446179  1.0000
  Au  Au18      1.0  0.00374998405131163  0.0005408517207955304  0.9987318974349871  1.0000
  Ag  Ag7       1.0  0.00374998405131163  0.00553907974053992  0.9992916782478758  1.0000
  Ag  Ag8       1.0  0.003749976442204583  0.002122310755435451  0.9996811711241295  1.0000
  Ag  Ag9       1.0  0.00374998405131163  0.008872413281030979  0.9994784041541069  1.0000
  Ag  Ag10      1.0  0.00875000286102425  0.007785897063750532  0.9997819256112411  1.0000
  Ag  Ag11      1.0  0.008749980033703109  0.004477105401975377  0.9996158716734348  1.0000
  Ag  Ag12      1.0  0.008749983838256632  0.001094635060345667  0.9994161622410586  1.0000
  Au  Au19      1.0  0.00874998992554227  0.006175594026592464  0.9996853214198368  1.0000
  Au  Au20      1.0  0.008749983077345928  0.00279458062686943  0.999502203486699  1.0000
  Au  Au21      1.0  0.008749983838256632  0.009426196377818155  0.9993232954377572  1.0000
  Au  Au22      1.0  0.008749983838256632  0.0044315130614396465  0.9993226999688897  1.0000
  Au  Au23      1.0  0.008749980794613813  0.001151310136929807  0.9996879694339313  1.0000
  Au  Au24      1.0  0.008749984599167338  0.007815461222590624  0.9995050686465926  1.0000
  Au  Au25      1.0  0.008749983838256632  0.006092862837327096  0.9994157652568106  1.0000
  Au  Au26      1.0  0.0087499785118817  0.002783583222001592  0.9997748750008351  1.0000
  Au  Au27      1.0  0.00874998688189945  0.009486253992110647  0.999617908826589  1.0000
  Au  Au28      1.0  0.00374998405131163  0.007207518680396169  0.9993845449761335  1.0000
  Au  Au29      1.0  0.003749978724936697  0.0037844868964400087  0.9997505180804793  1.0000
  Au  Au30      1.0  0.0037499832904009252  0.0005137456583106905  0.9995849563637581  1.0000
  Au  Au31      1.0  0.0037499935626954385  0.008785655625304872  0.9997460459975163  1.0000
  Au  Au32      1.0  0.0037499848122223346  0.005516295465657113  0.9995883965667  1.0000
  Au  Au33      1.0  0.00374998405131163  0.0022022016180644603  0.9993851405234445  1.0000
  Au  Au34      1.0  0.0037499935626954385  0.007103534079476103  0.9996854737848418  1.0000
  Au  Au35      1.0  0.00374998405131163  0.0038741851399051097  0.9994788011485541  1.0000
  Au  Au36      1.0  0.00374998405131163  0.0005408517207955304  0.9992920752389234  1.0000
