data_image0
_chemical_formula_structural       HNi12Si12
_chemical_formula_sum              "H1 Ni12 Si12"
_cell_length_a       6.535311686769758
_cell_length_b       5.7830792407776395
_cell_length_c       101.85420227050781
_cell_angle_alpha    90.53372608306246
_cell_angle_beta     91.43554736484919
_cell_angle_gamma    71.93472718416315

_space_group_name_H-M_alt    "P 1"
_space_group_IT_number       1

loop_
  _space_group_symop_operation_xyz
  'x, y, z'

loop_
  _atom_site_type_symbol
  _atom_site_label
  _atom_site_symmetry_multiplicity
  _atom_site_fract_x
  _atom_site_fract_y
  _atom_site_fract_z
  _atom_site_occupancy
  H   H1        1.0  0.005652102235695747  0.0036639432784435484  6.153856644366969e-05  1.0000
  Ni  Ni1       1.0  0.004025770178107946  0.005848020499617947  0.9996472847403626  1.0000
  Ni  Ni2       1.0  0.0015257701181334478  0.006681353957026324  0.9993866657854589  1.0000
  Ni  Ni3       1.0  0.007775770418005937  0.0012646870565036384  0.9995169752994626  1.0000
  Ni  Ni4       1.0  0.003474230001815548  0.0022735734430676165  0.999492704375355  1.0000
  Ni  Ni5       1.0  0.009724230301688038  0.006856906478125064  0.9996230141358384  1.0000
  Ni  Ni6       1.0  0.00722422994184105  0.007690240040549728  0.9993623948879103  1.0000
  Ni  Ni7       1.0  0.0027757702980569414  0.009598020380307591  3.8214014386315934e-05  1.0000
  Ni  Ni8       1.0  0.00027577010688822944  0.0004313540286052947  0.999777594812859  1.0000
  Ni  Ni9       1.0  0.0065257705379549325  0.005014686937193285  0.9999079039882907  1.0000
  Ni  Ni10      1.0  0.002224229971828299  0.006023573698364738  0.9998836330641401  1.0000
  Ni  Ni11      1.0  0.008474230421637034  0.0006069067453339102  1.394287095498707e-05  1.0000
  Ni  Ni12      1.0  0.005974230061790046  0.0014402403077585725  0.9997533236230269  1.0000
  Si  Si1       1.0  0.0033984123406981376  0.009386281688422435  0.999321592937355  1.0000
  Si  Si2       1.0  0.009648412340698138  0.003969614892916036  0.9994519024509323  1.0000
  Si  Si3       1.0  0.005898412700545125  0.008552948125997774  0.9995822121852831  1.0000
  Si  Si4       1.0  0.005351588019148849  0.00498531220413733  0.9994274677364405  1.0000
  Si  Si5       1.0  0.0016015876293146132  0.00956864569975978  0.9995577771771272  1.0000
  Si  Si6       1.0  0.009101587659301863  0.00040197929315492553  0.9992971580022602  1.0000
  Si  Si7       1.0  0.0021484123107108886  0.003136281686040091  0.9997125219646859  1.0000
  Si  Si8       1.0  0.008398412460647134  0.007719614773605682  0.9998428311397604  1.0000
  Si  Si9       1.0  0.004648412520621631  0.002302948176123571  0.9999731412124008  1.0000
  Si  Si10      1.0  0.004101587839225356  0.008735312189843261  0.9998183964248422  1.0000
  Si  Si11      1.0  0.0003515875993273644  0.0033186460194767693  0.9999487059120307  1.0000
  Si  Si12      1.0  0.007851587779250858  0.004151978851745238  0.9996880869835157  1.0000
