data_image0
_chemical_formula_structural       COCa8Sn8Ca8Sn8
_chemical_formula_sum              "C1 O1 Ca16 Sn16"
_cell_length_a       15.286289886386484
_cell_length_b       6.6070869466037205
_cell_length_c       109.64252471923828
_cell_angle_alpha    95.43176904553897
_cell_angle_beta     118.23814698288618
_cell_angle_gamma    61.76185110086378

_space_group_name_H-M_alt    "P 1"
_space_group_IT_number       1

loop_
  _space_group_symop_operation_xyz
  'x, y, z'

loop_
  _atom_site_type_symbol
  _atom_site_label
  _atom_site_symmetry_multiplicity
  _atom_site_fract_x
  _atom_site_fract_y
  _atom_site_fract_z
  _atom_site_occupancy
  C   C1        1.0  0.009191303835848437  0.006069296442469377  0.00038376280692603614  1.0000
  O   O1        1.0  0.009191303835848437  0.006069296442469377  0.0004932096146260918  1.0000
  Ca  Ca1       1.0  0.0036878633407017793  0.007562206003795054  0.9993791570567857  1.0000
  Ca  Ca2       1.0  0.003687863277595283  0.0025622057117200532  0.9996804586703044  1.0000
  Ca  Ca3       1.0  0.0013769506283253811  0.00987311833601679  0.9995412023566378  1.0000
  Ca  Ca4       1.0  0.0013769507257209068  0.0048731185307334555  0.9992399009840215  1.0000
  Ca  Ca5       1.0  0.00868786336829179  6.220570259270953e-05  0.9992285064320469  1.0000
  Ca  Ca6       1.0  0.008687863444703774  0.0050622059388894984  0.999529807818587  1.0000
  Ca  Ca7       1.0  0.0063769506549136296  0.007373118595639012  0.9996918528433701  1.0000
  Ca  Ca8       1.0  0.006376950591807133  0.0023731183035640107  0.9993905517292031  1.0000
  Sn  Sn1       1.0  0.0008845739869548248  0.000365495110352945  0.9992102303530881  1.0000
  Sn  Sn2       1.0  0.0008845738619477767  0.005365495321296002  0.999511531726197  1.0000
  Sn  Sn3       1.0  0.0041802400661635885  0.007069829213232509  0.9997101293049858  1.0000
  Sn  Sn4       1.0  0.004180240003057093  0.002069828921157508  0.9994088279190052  1.0000
  Sn  Sn5       1.0  0.0058845738276384505  0.0028654952563904454  0.9996621822070612  1.0000
  Sn  Sn6       1.0  0.00588457392945182  0.007865495386201557  0.9993608808669836  1.0000
  Sn  Sn7       1.0  0.009180239616920301  0.004569829148326953  0.9992581773026068  1.0000
  Sn  Sn8       1.0  0.009180239796147417  0.009569828953610287  0.9995594786934704  1.0000
  Ca  Ca9       1.0  0.0036878633407017793  0.007562206003795054  0.999981760056285  1.0000
  Ca  Ca10      1.0  0.0036296531698473164  0.002875339157490579  0.0002773983776062082  1.0000
  Ca  Ca11      1.0  0.0013604844318952144  0.00990424509334769  0.00014624003295686815  1.0000
  Ca  Ca12      1.0  0.0013769507257209068  0.0048731185307334555  0.9998425034398937  1.0000
  Ca  Ca13      1.0  0.00868786336829179  6.220570259270953e-05  0.9998311091597327  1.0000
  Ca  Ca14      1.0  0.008703894765684955  0.005344027808759364  0.00012686685956107488  1.0000
  Ca  Ca15      1.0  0.006134191691328003  0.007604869074590088  0.00028463957732455676  1.0000
  Ca  Ca16      1.0  0.006376950591807133  0.0023731183035640107  0.999993154456889  1.0000
  Sn  Sn9       1.0  0.0008845739869548248  0.000365495110352945  0.9998128328089603  1.0000
  Sn  Sn10      1.0  0.0008086954551043925  0.0055384079404522165  0.00011918619887255671  1.0000
  Sn  Sn11      1.0  0.004143808409119245  0.007434534179577161  0.00031372396832290154  1.0000
  Sn  Sn12      1.0  0.004180240003057093  0.002069828921157508  1.1430374877502002e-05  1.0000
  Sn  Sn13      1.0  0.00580508237855347  0.002990889220132229  0.0002718959265563087  1.0000
  Sn  Sn14      1.0  0.00588457392945182  0.007865495386201557  0.9999634835946694  1.0000
  Sn  Sn15      1.0  0.009180239616920301  0.004569829148326953  0.999860779758479  1.0000
  Sn  Sn16      1.0  0.009190969542708939  0.009937794775071614  0.00016293138888099655  1.0000
