data_image0
_chemical_formula_structural       CORh4V4Rh4V4Rh4V4Rh4V4
_chemical_formula_sum              "C1 O1 Rh16 V16"
_cell_length_a       5.609452724456787
_cell_length_b       8.906332084180109
_cell_length_c       105.28726959228516
_cell_angle_alpha    90.75512864576339
_cell_angle_beta     90.0
_cell_angle_gamma    90.0

_space_group_name_H-M_alt    "P 1"
_space_group_IT_number       1

loop_
  _space_group_symop_operation_xyz
  'x, y, z'

loop_
  _atom_site_type_symbol
  _atom_site_label
  _atom_site_symmetry_multiplicity
  _atom_site_fract_x
  _atom_site_fract_y
  _atom_site_fract_z
  _atom_site_occupancy
  C   C1        1.0  3.1465000068641933e-07  0.0008720869492387683  0.00016546470815977733  1.0000
  O   O1        1.0  3.1465000068641933e-07  0.0008720869492387683  0.00027943883214612454  1.0000
  Rh  Rh1       1.0  0.002499994355070077  0.003250674333554112  0.999844692979373  1.0000
  Rh  Rh2       1.0  0.0025001982366567137  0.0037064551964494058  0.9994318022474292  1.0000
  Rh  Rh3       1.0  0.002500314787856892  0.0008464547529564192  9.43653400590683e-07  1.0000
  Rh  Rh4       1.0  0.0025001982366567137  0.001296987751461611  0.9996112554989934  1.0000
  V   V1        1.0  1.9815001524364555e-07  0.0012051727395561544  0.999397374171447  1.0000
  V   V2        1.0  0.009999802095397987  0.0005767298543917401  0.9998209038823203  1.0000
  V   V3        1.0  1.9815001524364555e-07  0.004423269873706316  0.9992267431950913  1.0000
  V   V4        1.0  1.9815001524364555e-07  0.0037982702083548623  0.9996456835749757  1.0000
  Rh  Rh5       1.0  0.002499994355070077  0.008250674584540523  0.9998446931682397  1.0000
  Rh  Rh6       1.0  0.0025001982366567137  0.008706455029125133  0.9994318024358295  1.0000
  Rh  Rh7       1.0  0.002500314787856892  0.005846454428765639  9.43275511598769e-07  1.0000
  Rh  Rh8       1.0  0.0025001982366567137  0.006296987584137338  0.9996112551212794  1.0000
  V   V5        1.0  1.9815001524364555e-07  0.006205172572231881  0.9993973743598473  1.0000
  V   V6        1.0  0.009999802095397987  0.005576729791645137  0.9998209035047227  1.0000
  V   V7        1.0  1.9815001524364555e-07  0.009423269706382043  0.9992267431004344  1.0000
  V   V8        1.0  1.9815001524364555e-07  0.008798270041030589  0.999645683763376  1.0000
  Rh  Rh9       1.0  0.0074999946871247775  0.003250674333554112  0.999844692979373  1.0000
  Rh  Rh10      1.0  0.007500198568711415  0.0037064551964494058  0.9994318022474292  1.0000
  Rh  Rh11      1.0  0.007500314787856892  0.0008464547529564192  9.43653400590683e-07  1.0000
  Rh  Rh12      1.0  0.007500198568711415  0.001296987751461611  0.9996112554989934  1.0000
  V   V9        1.0  0.005000198236656713  0.0012051727395561544  0.999397374171447  1.0000
  V   V10       1.0  0.0049998020953979875  0.0005767298543917401  0.9998209038823203  1.0000
  V   V11       1.0  0.005000198236656713  0.004423269873706316  0.9992267431950913  1.0000
  V   V12       1.0  0.005000198236656713  0.0037982702083548623  0.9996456835749757  1.0000
  Rh  Rh13      1.0  0.0074999946871247775  0.008250674584540523  0.9998446931682397  1.0000
  Rh  Rh14      1.0  0.007500198568711415  0.008706455029125133  0.9994318024358295  1.0000
  Rh  Rh15      1.0  0.007500314787856892  0.005846454428765639  9.43275511598769e-07  1.0000
  Rh  Rh16      1.0  0.007500198568711415  0.006296987584137338  0.9996112551212794  1.0000
  V   V13       1.0  0.005000198236656713  0.006205172572231881  0.9993973743598473  1.0000
  V   V14       1.0  0.0049998020953979875  0.005576729791645137  0.9998209035047227  1.0000
  V   V15       1.0  0.005000198236656713  0.009423269706382043  0.9992267431004344  1.0000
  V   V16       1.0  0.005000198236656713  0.008798270041030589  0.999645683763376  1.0000
