data_image0
_chemical_formula_structural       HCu36Sn30
_chemical_formula_sum              "H1 Cu36 Sn30"
_cell_length_a       15.511304328548071
_cell_length_b       6.751606680423939
_cell_length_c       106.65181732177734
_cell_angle_alpha    87.31602267147528
_cell_angle_beta     85.0657875272479
_cell_angle_gamma    100.0223533333209

_space_group_name_H-M_alt    "P 1"
_space_group_IT_number       1

loop_
  _space_group_symop_operation_xyz
  'x, y, z'

loop_
  _atom_site_type_symbol
  _atom_site_label
  _atom_site_symmetry_multiplicity
  _atom_site_fract_x
  _atom_site_fract_y
  _atom_site_fract_z
  _atom_site_occupancy
  H   H1        1.0  0.0039002329693895036  0.0012111959605463738  0.9999476197535875  1.0000
  Cu  Cu1       1.0  0.0026976094189886638  0.009020809803473202  0.9988581769902363  1.0000
  Cu  Cu2       1.0  0.009364276464608856  0.003465254172973057  0.9992400198366661  1.0000
  Cu  Cu3       1.0  0.00603094294179876  0.007909698544185748  0.9996218630646453  1.0000
  Cu  Cu4       1.0  0.00232743805983719  0.005752321563994756  0.999006498425976  1.0000
  Cu  Cu5       1.0  0.008994104860444326  0.00019676600565998812  0.9993883412752568  1.0000
  Cu  Cu6       1.0  0.005691775779669959  0.004623248557946353  0.9997728152719317  1.0000
  Cu  Cu7       1.0  0.0008671592705758279  0.00941630370024249  0.9997445228797961  1.0000
  Cu  Cu8       1.0  0.007508641669261322  0.0005107163484054822  0.9989857406832422  1.0000
  Cu  Cu9       1.0  0.004175308636477336  0.004955160747902877  0.9993675839050077  1.0000
  Cu  Cu10      1.0  0.0012121467178317694  0.00266809350185273  0.9996011054422654  1.0000
  Cu  Cu11      1.0  0.00787881327342585  0.0037792044466723675  0.9988374195242918  1.0000
  Cu  Cu12      1.0  0.004545480240641865  0.00822364936401614  0.9992192624650865  1.0000
  Cu  Cu13      1.0  0.001504985096385078  0.006065412160085354  0.9994598635804804  1.0000
  Cu  Cu14      1.0  0.008088543958682127  0.0006009068673650171  0.9998358976809483  1.0000
  Cu  Cu15      1.0  0.004838318374182119  0.0016209674812840311  0.999078020356478  1.0000
  Cu  Cu16      1.0  0.00025912700165669594  0.006025529358862229  0.999865185089528  1.0000
  Cu  Cu17      1.0  0.007061194907579664  0.007319542808553131  0.9991446941104306  1.0000
  Cu  Cu18      1.0  0.003727861629782623  0.0017639871158859858  0.9995265370840422  1.0000
  Cu  Cu19      1.0  0.0020345996812838815  0.002355003043854498  0.9991477402873516  1.0000
  Cu  Cu20      1.0  0.008701266236877963  0.006799447307737925  0.9995295833917166  1.0000
  Cu  Cu21      1.0  0.005402199259921013  0.0009859398706500958  0.9998967561292653  1.0000
  Cu  Cu22      1.0  0.0032137556362411205  0.005593767073761714  0.9998275928753525  1.0000
  Cu  Cu23      1.0  0.009811723226290514  0.0066564278081091425  0.9990810672195587  1.0000
  Cu  Cu24      1.0  0.006478389703480417  0.0011008720840381004  0.999462909637457  1.0000
  Cu  Cu25      1.0  0.006769792060516986  0.004210207345845535  0.9993038021567422  1.0000
  Cu  Cu26      1.0  0.0034452883181915  0.008691098605797112  0.9996755231268446  1.0000
  Cu  Cu27      1.0  0.00010312569633935362  0.009765762806922273  0.9989219590228545  1.0000
  Cu  Cu28      1.0  0.0051031255441249925  0.004765763075939343  0.9989219591161749  1.0000
  Cu  Cu29      1.0  0.0017697923888344797  0.009210207701396432  0.9993038020593673  1.0000
  Cu  Cu30      1.0  0.008385449308939304  0.003658472948055253  0.9996739843425526  1.0000
  Cu  Cu31      1.0  0.0014732480653141923  0.008772266819964982  0.9990513898425668  1.0000
  Cu  Cu32      1.0  0.00813991486592133  0.0032167110113377993  0.9994332326925897  1.0000
  Cu  Cu33      1.0  0.004832902605609172  0.007580254384408384  0.9998113247535102  1.0000
  Cu  Cu34      1.0  0.002066336712354767  0.00964814858282788  0.9995562142761678  1.0000
  Cu  Cu35      1.0  0.008697454813790705  0.004090939676738173  0.9999061218034873  1.0000
  Cu  Cu36      1.0  0.005399669745138752  0.005203703907145751  0.9991743710552211  1.0000
  Sn  Sn1       1.0  0.0003790053967379189  0.008997688000682737  0.9994960257645293  1.0000
  Sn  Sn2       1.0  0.006998512237606306  0.00336356698475285  0.9998903903121588  1.0000
  Sn  Sn3       1.0  0.003712338827668119  0.004553243212047256  0.9991141830978082  1.0000
  Sn  Sn4       1.0  0.002616362599846152  0.0017652857768602408  0.9997655849489959  1.0000
  Sn  Sn5       1.0  0.009241722894484033  0.0029812025827764834  0.9989877300543265  1.0000
  Sn  Sn6       1.0  0.005908389371673937  0.007425646988512267  0.999369572723332  1.0000
  Sn  Sn7       1.0  0.003160579227797881  0.009422727339328824  0.9991115777974358  1.0000
  Sn  Sn8       1.0  0.009827246273418072  0.0038671718987056828  0.9994934206433026  1.0000
  Sn  Sn9       1.0  0.006511488517112307  0.008145374991071343  0.9998765763137628  1.0000
  Sn  Sn10      1.0  0.000964528561285535  0.006550323236454038  0.9988561881744119  1.0000
  Sn  Sn11      1.0  0.007631195239386144  0.0009947677659865968  0.9992380310249648  1.0000
  Sn  Sn12      1.0  0.004297861716576048  0.005439212378860932  0.9996198742522276  1.0000
  Sn  Sn13      1.0  0.0010986412348237737  0.005358789832944436  0.999217922290214  1.0000
  Sn  Sn14      1.0  0.007765307545404799  0.00980323399637778  0.9995997653979417  1.0000
  Sn  Sn15      1.0  0.004431974512620815  0.000914345050573836  0.9988360793459542  1.0000
  Sn  Sn16      1.0  0.008470094459157947  0.006689423417655073  0.9992717894581069  1.0000
  Sn  Sn17      1.0  0.0051367614263739605  0.0011338677563918246  0.9996536324285604  1.0000
  Sn  Sn18      1.0  0.0018034283935899754  0.0022449790784870726  0.9988899463478351  1.0000
  Sn  Sn19      1.0  0.002440943542845186  0.0030616253709954177  0.999389681577618  1.0000
  Sn  Sn20      1.0  0.008982049238074474  0.00763389620855832  0.999782168642175  1.0000
  Sn  Sn21      1.0  0.005774276575629171  0.008617180894166297  0.9990078386075739  1.0000
  Sn  Sn22      1.0  0.005069489661876024  0.0017309914466514564  0.9993358148548658  1.0000
  Sn  Sn23      1.0  0.0017504500782018948  0.006204120691304952  0.9997281463659937  1.0000
  Sn  Sn24      1.0  0.00840282269466001  0.007286546797206878  0.9989539718853333  1.0000
  Sn  Sn25      1.0  0.0002685385043877016  0.00037854600083559283  0.9991893924796712  1.0000
  Sn  Sn26      1.0  0.006935205274368206  0.004822990507966753  0.9995712355806332  1.0000
  Sn  Sn27      1.0  0.0036059901760035797  0.009192700784573243  0.9999390954139805  1.0000
  Sn  Sn28      1.0  0.00327104630390789  0.008041869198398973  0.9994182113877916  1.0000
  Sn  Sn29      1.0  0.009896874083455163  0.002174247702679944  0.9998060008485931  1.0000
  Sn  Sn30      1.0  0.006604379336691875  0.0035974243846244778  0.9990363681672543  1.0000
