data_image0
_chemical_formula_structural       HPb12
_chemical_formula_sum              "H1 Pb12"
_cell_length_a       7.209878444671631
_cell_length_b       7.209878512156049
_cell_length_c       105.321044921875
_cell_angle_alpha    90.0
_cell_angle_beta     90.0
_cell_angle_gamma    119.99999969037391

_space_group_name_H-M_alt    "P 1"
_space_group_IT_number       1

loop_
  _space_group_symop_operation_xyz
  'x, y, z'

loop_
  _atom_site_type_symbol
  _atom_site_label
  _atom_site_symmetry_multiplicity
  _atom_site_fract_x
  _atom_site_fract_y
  _atom_site_fract_z
  _atom_site_occupancy
  H   H1        1.0  0.004166671163276107  0.0008333333154345795  0.00011698059493040021  1.0000
  Pb  Pb1       1.0  0.002499998825409914  0.002500000244616303  0.9994483181356957  1.0000
  Pb  Pb2       1.0  0.0008333375876824352  0.009166666618936658  0.0  1.0000
  Pb  Pb3       1.0  0.004166662307602273  0.0008333336883252853  0.9997249849054376  1.0000
  Pb  Pb4       1.0  0.0024999988566256444  0.007500000286380063  0.9994483181356957  1.0000
  Pb  Pb5       1.0  0.000833337631044846  0.004166666726329179  0.0  1.0000
  Pb  Pb6       1.0  0.004166662450685215  0.005833333953823468  0.9997249849054376  1.0000
  Pb  Pb7       1.0  0.007499998675569082  0.002500000244616303  0.9994483181356957  1.0000
  Pb  Pb8       1.0  0.005833337567014734  0.009166666618936658  0.0  1.0000
  Pb  Pb9       1.0  0.009166662545280835  0.0008333336883252853  0.9997249849054376  1.0000
  Pb  Pb10      1.0  0.007499998965131075  0.007500000286380063  0.9994483181356957  1.0000
  Pb  Pb11      1.0  0.005833337610377145  0.004166666726329179  0.0  1.0000
  Pb  Pb12      1.0  0.009166662430017514  0.005833333953823468  0.9997249849054376  1.0000
