data_image0
_chemical_formula_structural       COIn48Ru16
_chemical_formula_sum              "C1 O1 In48 Ru16"
_cell_length_a       16.080193592558626
_cell_length_b       10.100442886352539
_cell_length_c       107.53642272949219
_cell_angle_alpha    90.0
_cell_angle_beta     76.34896698214664
_cell_angle_gamma    51.087750053637016

_space_group_name_H-M_alt    "P 1"
_space_group_IT_number       1

loop_
  _space_group_symop_operation_xyz
  'x, y, z'

loop_
  _atom_site_type_symbol
  _atom_site_label
  _atom_site_symmetry_multiplicity
  _atom_site_fract_x
  _atom_site_fract_y
  _atom_site_fract_z
  _atom_site_occupancy
  C   C1        1.0  0.007987095004878866  0.006887925554871307  0.9997691469002641  1.0000
  O   O1        1.0  0.007987095004878866  0.006887925554871307  0.9998807372248639  1.0000
  In  In1       1.0  0.005691910017086231  0.009183818685609113  0.9989847201847039  1.0000
  In  In2       1.0  0.0031919098796068975  0.006683819914808819  0.9986938385389592  1.0000
  In  In3       1.0  0.008191909842112533  0.0016838199523031832  0.9992756015643383  1.0000
  In  In4       1.0  0.0007591463538700863  0.004116806933409722  0.9995906402978575  1.0000
  In  In5       1.0  0.008970671528655811  0.009347534769813032  0.9987844493554145  1.0000
  In  In6       1.0  0.006494131302182656  0.006812787846871238  0.9996553619611276  1.0000
  In  In7       1.0  0.0014706715848973582  0.0018475350381370022  0.9990753311481374  1.0000
  In  In8       1.0  0.0039706715661501765  0.004347534702812712  0.9993662125222584  1.0000
  In  In9       1.0  0.008078050082511596  0.006797678620183746  0.9987070863065366  1.0000
  In  In10      1.0  0.005185438962315185  0.004691422385515  0.9995852756378206  1.0000
  In  In11      1.0  0.0005780501387531426  0.009297679655662574  0.9989979680992594  1.0000
  In  In12      1.0  0.0030780501200059606  0.0017976796596567784  0.9992888494733805  1.0000
  In  In13      1.0  0.009635573455598154  0.005240155247097189  0.9988883083580491  1.0000
  In  In14      1.0  0.007135573005665788  0.002740156788749929  0.9985974267233312  1.0000
  In  In15      1.0  0.0021355733556131843  0.007740156438802533  0.9991791896020114  1.0000
  In  In16      1.0  0.004601011813404209  0.00027613019507990994  0.999477126632255  1.0000
  In  In17      1.0  0.006356811944028574  0.0019613943249343142  0.9990885786330644  1.0000
  In  In18      1.0  0.003856811806549239  0.009461394845991077  0.9987976972644568  1.0000
  In  In19      1.0  0.008856811769054876  0.0044613948834854415  0.9993794600126988  1.0000
  In  In20      1.0  0.0013747666263307298  0.007042834143826654  0.9996593692923019  1.0000
  In  In21      1.0  0.00641374151137601  0.0009619877224265419  0.999372836550129  1.0000
  In  In22      1.0  0.003913741686349708  0.008461987193381372  0.9990819546162206  1.0000
  In  In23      1.0  0.009034743772316145  0.0035123999590797594  0.9996811563488387  1.0000
  In  In24      1.0  0.0014137417050968898  0.005961987528705663  0.9987910732420996  1.0000
  In  In25      1.0  0.00641374151137601  0.00596198736835507  0.999372836550129  1.0000
  In  In26      1.0  0.003913741686349708  0.0034619875474528445  0.9990819546162206  1.0000
  In  In27      1.0  0.00903449443479656  0.008170896206593998  0.9996811402058372  1.0000
  In  In28      1.0  0.0014137417050968898  0.0009619880671893601  0.9987910732420996  1.0000
  In  In29      1.0  0.008970671528655811  0.002462581053563833  0.9987844493554145  1.0000
  In  In30      1.0  0.006495229262137315  0.009953131490805586  0.999655282196927  1.0000
  In  In31      1.0  0.0014706715848973582  0.004962581351393759  0.9990753311481374  1.0000
  In  In32      1.0  0.0039706715661501765  0.007462581016069469  0.9993662125222584  1.0000
  In  In33      1.0  0.006356811944028574  0.005076440638191071  0.9990885786330644  1.0000
  In  In34      1.0  0.003856811806549239  0.002576441129741878  0.9987976972644568  1.0000
  In  In35      1.0  0.008856811769054876  0.0075764404590932975  0.9993794600126988  1.0000
  In  In36      1.0  0.0013756527431296526  0.009960097407327118  0.9996594660577978  1.0000
  In  In37      1.0  0.007249432765266725  0.007626295937428618  0.9991659417039959  1.0000
  In  In38      1.0  0.004749433252693455  0.0051262965417222615  0.9988750603133347  1.0000
  In  In39      1.0  0.009836258288654049  3.990155507107684e-05  0.9994584891066844  1.0000
  In  In40      1.0  0.002249433115214121  0.002626296664448618  0.9985841789447271  1.0000
  In  In41      1.0  0.008913741336402312  0.008461987189257296  0.9990819546950834  1.0000
  In  In42      1.0  0.00641374151137601  0.00596198736835507  0.998791073315449  1.0000
  In  In43      1.0  0.0014137417050968898  0.0009619880671893601  0.9993728364767795  1.0000
  In  In44      1.0  0.0038746388142934353  0.00346373956739599  0.9996697825478779  1.0000
  In  In45      1.0  0.008913741336402312  0.003461987543328768  0.9990819546950834  1.0000
  In  In46      1.0  0.00641374151137601  0.0009619877224265419  0.998791073315449  1.0000
  In  In47      1.0  0.0014137417050968898  0.005961987528705663  0.9993728364767795  1.0000
  In  In48      1.0  0.003875768644457365  0.008541045803773704  0.9996697559778045  1.0000
  Ru  Ru1       1.0  0.006896664543385838  0.007979862295420623  0.9994234518050235  1.0000
  Ru  Ru2       1.0  0.004393709225129278  0.005482020569286438  0.9991378000990286  1.0000
  Ru  Ru3       1.0  0.009393709187634915  0.00048202060678080203  0.9985560374864588  1.0000
  Ru  Ru4       1.0  0.0018937092438764604  0.0029820205357862788  0.9988469187249076  1.0000
  Ru  Ru5       1.0  0.007663741736342193  0.005671923590392129  0.9989365142713765  1.0000
  Ru  Ru6       1.0  0.005163741598862859  0.003171923344294035  0.9986456326256318  1.0000
  Ru  Ru7       1.0  0.00016374174376295256  0.008171923199393942  0.9992273955115483  1.0000
  Ru  Ru8       1.0  0.0026699717748428055  0.0006470741576454898  0.9995135807050648  1.0000
  Ru  Ru9       1.0  0.007663741736342193  0.008752051817611973  0.9989365142713765  1.0000
  Ru  Ru10      1.0  0.005163741598862859  0.006252052309162781  0.9986456326256318  1.0000
  Ru  Ru11      1.0  0.00016374174376295256  0.0012520528724056315  0.9992273955115483  1.0000
  Ru  Ru12      1.0  0.0026698805385574438  0.003765512317196104  0.9995135883590617  1.0000
  Ru  Ru13      1.0  0.003433774147570137  0.0014419556320926018  0.9990261091334125  1.0000
  Ru  Ru14      1.0  0.0009337740882040611  0.008941955706211655  0.9987352280391851  1.0000
  Ru  Ru15      1.0  0.005933774285049471  0.003941955509366246  0.9993169910562942  1.0000
  Ru  Ru16      1.0  0.008427722519750831  0.006447298039999344  0.9996001177583655  1.0000
