data_image0
_chemical_formula_structural       HCo24Sb48
_chemical_formula_sum              "H1 Co24 Sb48"
_cell_length_a       9.250198159775934
_cell_length_b       12.989537765413239
_cell_length_c       108.36161804199219
_cell_angle_alpha    85.29967139163664
_cell_angle_beta     85.56878462828298
_cell_angle_gamma    79.39438950464678

_space_group_name_H-M_alt    "P 1"
_space_group_IT_number       1

loop_
  _space_group_symop_operation_xyz
  'x, y, z'

loop_
  _atom_site_type_symbol
  _atom_site_label
  _atom_site_symmetry_multiplicity
  _atom_site_fract_x
  _atom_site_fract_y
  _atom_site_fract_z
  _atom_site_occupancy
  H   H1        1.0  0.004999613181249661  0.008390089308343507  2.8344843542649417e-06  1.0000
  Co  Co1       1.0  0.007384968317152195  0.009976079743423006  0.9997752823454614  1.0000
  Co  Co2       1.0  0.0019764458945005637  0.003362217536848127  0.9995775196205212  1.0000
  Co  Co3       1.0  0.006420890011634016  0.006695550811686428  0.9993808444161846  1.0000
  Co  Co4       1.0  0.003954034623401625  0.00994815187519163  0.9995081938412871  1.0000
  Co  Co5       1.0  0.005000830870885682  0.0033417942887883838  0.9998758754449  1.0000
  Co  Co6       1.0  0.009546009497632648  0.006616395333949544  0.9997027050981907  1.0000
  Co  Co7       1.0  8.769298637211654e-05  0.003408829888303502  0.9998787203049884  1.0000
  Co  Co8       1.0  0.0045529916205460695  0.006609488825483394  0.9997049972970342  1.0000
  Co  Co9       1.0  0.008962307052840807  0.00994318915664951  0.9995084863695922  1.0000
  Co  Co10      1.0  0.006984717864895645  0.0033572542333556834  0.9995778121575998  1.0000
  Co  Co11      1.0  0.001429162596007094  0.006690587508193985  0.9993811376257792  1.0000
  Co  Co12      1.0  0.0025777890069581563  2.6425299938250305e-05  0.9997593616990381  1.0000
  Co  Co13      1.0  0.000865334786885453  2.8884200315846267e-05  0.999184169684936  1.0000
  Co  Co14      1.0  0.005309779090496713  0.003362217536848127  0.9989874950288166  1.0000
  Co  Co15      1.0  0.009754223409596611  0.006695550811686428  0.9987908200981744  1.0000
  Co  Co16      1.0  0.007287368425297113  0.00994815187519163  0.9989181692455863  1.0000
  Co  Co17      1.0  0.00839847917311932  0.003281485325515028  0.9993115189844076  1.0000
  Co  Co18      1.0  0.002842923628836703  0.006614818892828491  0.9991148439014772  1.0000
  Co  Co19      1.0  0.0034067515555259507  0.0032765220220225843  0.9993118116452812  1.0000
  Co  Co20      1.0  0.007851195397265339  0.006609855589336047  0.999115136989941  1.0000
  Co  Co21      1.0  0.0022956402569156154  0.00994318915664951  0.9989184619043465  1.0000
  Co  Co22      1.0  0.0003180514729033453  0.0033572542333556834  0.99898778768969  1.0000
  Co  Co23      1.0  0.0047624957920032445  0.006690587508193985  0.998791112759048  1.0000
  Co  Co24      1.0  0.005873606983340418  2.39208008549903e-05  0.9991844627715194  1.0000
  Sb  Sb1       1.0  0.0033637025838791626  0.001538321809577986  0.9996407862509877  1.0000
  Sb  Sb2       1.0  0.007797205022266066  0.004859992491109692  0.9994431091065555  1.0000
  Sb  Sb3       1.0  0.008203496158307939  0.008048938675492771  0.9998399478203386  1.0000
  Sb  Sb4       1.0  0.006537314447167965  0.009407954346358726  0.9995861049871736  1.0000
  Sb  Sb5       1.0  0.0009817587754422671  0.002741287504206963  0.9993894302611398  1.0000
  Sb  Sb6       1.0  0.0021072567944666934  0.006117829889520199  0.999774906663806  1.0000
  Sb  Sb7       1.0  0.0075859919423212786  0.0017787473602361814  0.9994462220330632  1.0000
  Sb  Sb8       1.0  0.00870791265423172  0.005181285230388066  0.9998578824308475  1.0000
  Sb  Sb9       1.0  0.0031549484316630337  0.008427468803897322  0.9996462130377927  1.0000
  Sb  Sb10      1.0  0.004401438298206959  0.0038974523471389097  0.9994999010042719  1.0000
  Sb  Sb11      1.0  0.005381884551078268  0.007317998205466001  0.9999033896847863  1.0000
  Sb  Sb12      1.0  0.009912306776429715  0.00044382012647702296  0.9997144820267007  1.0000
  Sb  Sb13      1.0  0.006118235603148184  0.001938406626204951  0.999739377774563  1.0000
  Sb  Sb14      1.0  0.0005085586729756199  0.0052623248331160125  0.9995383006622041  1.0000
  Sb  Sb15      1.0  0.004953003065503138  0.008595657815479153  0.9993416260089772  1.0000
  Sb  Sb16      1.0  0.0014335219492926548  0.00044108511812206055  0.9994062173620134  1.0000
  Sb  Sb17      1.0  0.0025009794881001943  0.0038016538628060322  0.9997969309261563  1.0000
  Sb  Sb18      1.0  0.006989077042654372  0.007107751850595639  0.9996028920929391  1.0000
  Sb  Sb19      1.0  0.0048746385016568295  0.0013764150182298599  0.9993510306025416  1.0000
  Sb  Sb20      1.0  0.006065977004018726  0.004723058837672822  0.9997464934755312  1.0000
  Sb  Sb21      1.0  0.0004301944109832368  0.008043082152856785  0.9995477054506475  1.0000
  Sb  Sb22      1.0  0.009504538521530782  0.0028369918115378036  0.9996808287769287  1.0000
  Sb  Sb23      1.0  0.003949675372215279  0.006197654550426836  0.9994831139035592  1.0000
  Sb  Sb24      1.0  0.004859667752146188  0.009650132554422843  0.9998731568305026  1.0000
  Sb  Sb25      1.0  0.0066860942112701915  0.0015266587775586476  0.9990497591727173  1.0000
  Sb  Sb26      1.0  0.0011305384283073203  0.004859992491109692  0.9988530843649512  1.0000
  Sb  Sb27      1.0  0.0022416496248386882  0.00819332547347283  0.9992464340284024  1.0000
  Sb  Sb28      1.0  0.009870647037264776  0.009407954346358726  0.9989960803994651  1.0000
  Sb  Sb29      1.0  0.004315091870455194  0.002741287504206963  0.9987994053950747  1.0000
  Sb  Sb30      1.0  0.005426202791592497  0.006074620779045264  0.9991927550574693  1.0000
  Sb  Sb31      1.0  0.0009193255503289791  0.0017787473602361814  0.9988561975651534  1.0000
  Sb  Sb32      1.0  0.0020304366000051094  0.0051120809275496445  0.9992495474988539  1.0000
  Sb  Sb33      1.0  0.006474881047643835  0.008445414494863107  0.9990528722894646  1.0000
  Sb  Sb34      1.0  0.007734771696169555  0.0038974523471389097  0.9989098764112352  1.0000
  Sb  Sb35      1.0  0.008845882617306858  0.007230785621977211  0.9993032263486563  1.0000
  Sb  Sb36      1.0  0.0032903274413188226  0.0005641188163848423  0.9991065516189939  1.0000
  Sb  Sb37      1.0  0.009397447248001749  0.0019289911195649692  0.9991449511559563  1.0000
  Sb  Sb38      1.0  0.003841891667005324  0.0052623248331160125  0.9989482760718315  1.0000
  Sb  Sb39      1.0  0.008286335655599948  0.008595657815479153  0.9987516011462422  1.0000
  Sb  Sb40      1.0  0.0047668552462720275  0.00044108511812206055  0.9988161927696427  1.0000
  Sb  Sb41      1.0  0.005877966121517069  0.0037744185757573375  0.999209542705571  1.0000
  Sb  Sb42      1.0  0.0003224108526285178  0.007107751850595639  0.9990128676236972  1.0000
  Sb  Sb43      1.0  0.008207971495686533  0.0013764150182298599  0.998761006012169  1.0000
  Sb  Sb44      1.0  0.009319083151262002  0.004709748585543323  0.9991543553918202  1.0000
  Sb  Sb45      1.0  0.003763527606979386  0.008043082152856785  0.998957680858943  1.0000
  Sb  Sb46      1.0  0.0028385640471450843  0.002864321275588535  0.9990897639688021  1.0000
  Sb  Sb47      1.0  0.007283008366244983  0.006197654550426836  0.9988930893131865  1.0000
  Sb  Sb48      1.0  0.008394119213954667  0.009530988117740299  0.9992864392482191  1.0000
