data_image0
_chemical_formula_structural       HAl12Fe2
_chemical_formula_sum              "H1 Al12 Fe2"
_cell_length_a       4.947734355926514
_cell_length_b       4.947734496012668
_cell_length_c       34.53932189941406
_cell_angle_alpha    90.0
_cell_angle_beta     90.0
_cell_angle_gamma    98.04740467061984

_space_group_name_H-M_alt    "P 1"
_space_group_IT_number       1

loop_
  _space_group_symop_operation_xyz
  'x, y, z'

loop_
  _atom_site_type_symbol
  _atom_site_label
  _atom_site_symmetry_multiplicity
  _atom_site_fract_x
  _atom_site_fract_y
  _atom_site_fract_z
  _atom_site_occupancy
  H   H1        1.0  0.007141049969788683  0.007141049828046073  0.0002867257139057833  1.0000
  Al  Al1       1.0  0.00321713927576305  0.006760659009421185  0.9987222754095689  1.0000
  Al  Al2       1.0  0.008523414085947596  0.008523414274594647  0.9976894333889866  1.0000
  Al  Al3       1.0  0.003299733466707159  0.006778196498326402  0.0  1.0000
  Al  Al4       1.0  0.0013452196247471452  0.0013452196146515082  0.9997900482669735  1.0000
  Al  Al5       1.0  0.009722597002886019  0.006058351130327089  0.9993654029978487  1.0000
  Al  Al6       1.0  0.006778196111301072  0.0032997333255353114  0.0  1.0000
  Al  Al7       1.0  0.008523414085947596  0.008523414274594647  0.9984717735161818  1.0000
  Al  Al8       1.0  0.0002774034290813893  0.0039142484423990605  0.9980806034525842  1.0000
  Al  Al9       1.0  0.0039142485507654284  0.00027740341114873475  0.9980806034525842  1.0000
  Al  Al10      1.0  0.006058351392968433  0.009722596634476263  0.9993654029978487  1.0000
  Al  Al11      1.0  0.0014543840840067226  0.001454383981524236  0.9989727777343821  1.0000
  Al  Al12      1.0  0.006760659069116833  0.003217139151645619  0.9987222754095689  1.0000
  Fe  Fe1       1.0  0.005387241095310481  0.00538724086461002  0.9980806034525842  1.0000
  Fe  Fe2       1.0  0.004578993934314212  0.004578993640653913  0.9993406633057961  1.0000
