data_image0
_chemical_formula_structural       COAs12Ca6Mn12
_chemical_formula_sum              "C1 O1 As12 Ca6 Mn12"
_cell_length_a       9.677090417803656
_cell_length_b       7.9202255927674114
_cell_length_c       100.4693374633789
_cell_angle_alpha    90.21315431856814
_cell_angle_beta     94.6853601486458
_cell_angle_gamma    71.68505196127529

_space_group_name_H-M_alt    "P 1"
_space_group_IT_number       1

loop_
  _space_group_symop_operation_xyz
  'x, y, z'

loop_
  _atom_site_type_symbol
  _atom_site_label
  _atom_site_symmetry_multiplicity
  _atom_site_fract_x
  _atom_site_fract_y
  _atom_site_fract_z
  _atom_site_occupancy
  C   C1        1.0  0.008410781001375536  0.009183092235685062  0.00010053316871866268  1.0000
  O   O1        1.0  0.008410781001375536  0.009183092235685062  0.00021997283679718545  1.0000
  As  As1       1.0  0.009405772099926268  0.0021043974761175816  0.999561334514205  1.0000
  As  As2       1.0  0.006072438864265088  0.004604397545266354  0.9993086096388311  1.0000
  As  As3       1.0  0.0027391058320875576  0.00835439691549476  0.9994349720509172  1.0000
  As  As4       1.0  0.008710875433416919  0.0070514669148299975  0.9994613146856178  1.0000
  As  As5       1.0  0.00537754260472304  0.0008014660000502541  0.999587677143716  1.0000
  As  As6       1.0  0.0020442093690618587  0.0033014660691990283  0.999334952268342  1.0000
  As  As7       1.0  0.009558716923130296  0.0033290437929880167  0.9999350526499563  1.0000
  As  As8       1.0  0.006072438864265088  0.005854397394752821  0.9996876972214821  1.0000
  As  As9       1.0  0.0027187849373288588  0.009420756090038791  0.9998103560338405  1.0000
  As  As10      1.0  0.008454626844453946  0.008408759972720947  0.9998597860581554  1.0000
  As  As11      1.0  0.005377226391130139  0.0017706030678374968  0.9999710266995793  1.0000
  As  As12      1.0  0.0020442093690618587  0.004551465918685494  0.999714039850993  1.0000
  Ca  Ca1       1.0  0.0007249909318732049  0.008327932101452948  0.9996376871560905  1.0000
  Ca  Ca2       1.0  0.007391657555808305  0.000827931500111248  0.9993849620391441  1.0000
  Ca  Ca3       1.0  0.0040583243201471235  0.004577931653923884  0.9995113247464901  1.0000
  Ca  Ca4       1.0  0.0006962509519453531  0.00948955686362151  8.260935935282035e-06  1.0000
  Ca  Ca5       1.0  0.007404191334745438  0.002108620156568387  0.9997677553682963  1.0000
  Ca  Ca6       1.0  0.00419069816718597  0.0056502445548820964  0.9999028581783886  1.0000
  Mn  Mn1       1.0  0.007560984440748009  0.0048954194869775996  0.9995049058632886  1.0000
  Mn  Mn2       1.0  0.0042276512050868275  0.008645419875967633  0.9996312682740724  1.0000
  Mn  Mn3       1.0  0.0008943178676838218  0.0011454194244202229  0.9993785431456089  1.0000
  Mn  Mn4       1.0  0.0005556640469335007  0.0042604438794092  0.9995177436285081  1.0000
  Mn  Mn5       1.0  0.0072223306708686  0.008010443569687472  0.9996441060498478  1.0000
  Mn  Mn6       1.0  0.0038889974352074195  0.0005104436670575331  0.9993913812189766  1.0000
  Mn  Mn7       1.0  0.009019751405879937  0.005507623551767801  0.9997290737507414  1.0000
  Mn  Mn8       1.0  0.004450155286350267  0.009399475631573678  0.9999833900960436  1.0000
  Mn  Mn9       1.0  0.0010260595927623424  0.002321181806795791  0.999756944577603  1.0000
  Mn  Mn10      1.0  0.0004412828347241587  0.00559863195791801  0.9998770303190618  1.0000
  Mn  Mn11      1.0  0.00580435525922085  0.00898352616744678  0.9998467644823714  1.0000
  Mn  Mn12      1.0  0.0037958833167316716  0.0016677372791794069  0.9997755894332423  1.0000
