data_image0
_chemical_formula_structural       COMnVMnVMnVMnVMnVMnVMnVMnVMnVMnVMnVMnV
_chemical_formula_sum              "C1 O1 Mn12 V12"
_cell_length_a       5.757104396820068
_cell_length_b       5.757104396820068
_cell_length_c       98.7855224609375
_cell_angle_alpha    90.0
_cell_angle_beta     90.0
_cell_angle_gamma    90.0

_space_group_name_H-M_alt    "P 1"
_space_group_IT_number       1

loop_
  _space_group_symop_operation_xyz
  'x, y, z'

loop_
  _atom_site_type_symbol
  _atom_site_label
  _atom_site_symmetry_multiplicity
  _atom_site_fract_x
  _atom_site_fract_y
  _atom_site_fract_z
  _atom_site_occupancy
  C   C1        1.0  0.004999998887027423  0.004999999210565963  0.0001753345358084204  1.0000
  O   O1        1.0  0.004999998887027423  0.004999999210565963  0.0002968100720990768  1.0000
  Mn  Mn1       1.0  1.2500000570696786e-09  8.000000550376181e-10  0.9994338481688044  1.0000
  V   V1        1.0  0.0025000013847449494  0.0025000008994371403  0.999288151076582  1.0000
  Mn  Mn2       1.0  7.950000267312534e-09  8.000000550376181e-10  0.9997195552488505  1.0000
  V   V2        1.0  0.0025000013847449494  0.0025000008994371403  0.9995795452610269  1.0000
  Mn  Mn3       1.0  0.009999999068209005  0.009999999715286085  0.0  1.0000
  V   V3        1.0  0.002500007370207933  0.002500003164206918  0.9998746049443019  1.0000
  Mn  Mn4       1.0  1.2500000570696786e-09  0.005000000828258661  0.9994338481688044  1.0000
  V   V4        1.0  0.0025000013847449494  0.007500001242387992  0.999288151076582  1.0000
  Mn  Mn5       1.0  7.950000267312534e-09  0.005000000828258661  0.9997195552488505  1.0000
  V   V5        1.0  0.0025000013847449494  0.007500001242387992  0.9995795452610269  1.0000
  Mn  Mn6       1.0  0.009999999068209005  0.004999999210565963  0.0  1.0000
  V   V6        1.0  0.002500007370207933  0.00750000318361923  0.9998746049443019  1.0000
  Mn  Mn7       1.0  0.005000001475335741  8.000000550376181e-10  0.9994338481688044  1.0000
  V   V7        1.0  0.007500001242387992  0.0025000008994371403  0.999288151076582  1.0000
  Mn  Mn8       1.0  0.005000007946106534  8.000000550376181e-10  0.9997195552488505  1.0000
  V   V8        1.0  0.007500001242387992  0.0025000008994371403  0.9995795452610269  1.0000
  Mn  Mn9       1.0  0.004999998887027423  0.009999999715286085  0.0  1.0000
  V   V9        1.0  0.007500007713158785  0.002500003164206918  0.9998746049443019  1.0000
  Mn  Mn10      1.0  0.005000001475335741  0.005000000828258661  0.9994338481688044  1.0000
  V   V10       1.0  0.007500001242387992  0.007500001242387992  0.999288151076582  1.0000
  Mn  Mn11      1.0  0.005000007946106534  0.005000000828258661  0.9997195552488505  1.0000
  V   V11       1.0  0.007500001242387992  0.007500001242387992  0.9995795452610269  1.0000
  Mn  Mn12      1.0  0.004999998887027423  0.004999999210565963  0.0  1.0000
  V   V12       1.0  0.007500007713158785  0.00750000318361923  0.9998746049443019  1.0000
