data_image0
_chemical_formula_structural       HAl36Rh8
_chemical_formula_sum              "H1 Al36 Rh8"
_cell_length_a       10.937821347573326
_cell_length_b       6.399852139043671
_cell_length_c       102.81346130371094
_cell_angle_alpha    86.01264485683484
_cell_angle_beta     107.26878819530997
_cell_angle_gamma    93.98735517613542

_space_group_name_H-M_alt    "P 1"
_space_group_IT_number       1

loop_
  _space_group_symop_operation_xyz
  'x, y, z'

loop_
  _atom_site_type_symbol
  _atom_site_label
  _atom_site_symmetry_multiplicity
  _atom_site_fract_x
  _atom_site_fract_y
  _atom_site_fract_z
  _atom_site_occupancy
  H   H1        1.0  0.00851381555501187  0.00903395338919394  0.00016272707598731295  1.0000
  Al  Al1       1.0  0.005632454747354175  0.009518210771068653  0.9991650128941683  1.0000
  Al  Al2       1.0  0.0006324545116442639  0.009518210891316754  0.999696938807136  1.0000
  Al  Al3       1.0  0.005632454747354175  0.009518210771068653  0.9996969384672589  1.0000
  Al  Al4       1.0  0.0006324545116442639  0.009518210891316754  0.9991650129441775  1.0000
  Al  Al5       1.0  0.008460802253224466  0.0073964173340699355  4.039606268096422e-05  1.0000
  Al  Al6       1.0  0.0034608021960826694  0.007396416885809877  0.9995084705476995  1.0000
  Al  Al7       1.0  0.003860890127593518  0.0016400052408644505  0.9999978324221956  1.0000
  Al  Al8       1.0  0.008860889827599087  0.0016400052215090292  0.999465907071609  1.0000
  Al  Al9       1.0  0.004392529546080197  0.005517241041036455  0.9993195479322702  1.0000
  Al  Al10      1.0  0.009392529960358222  0.005517241227533904  0.9998514734596633  1.0000
  Al  Al11      1.0  0.0020850550513782464  0.0035191811068919438  9.695483191181279e-05  1.0000
  Al  Al12      1.0  0.007085054929951929  0.003519180956655218  0.9995650289077952  1.0000
  Al  Al13      1.0  0.006872379591491925  0.0035191810546146957  7.432888711935893e-05  1.0000
  Al  Al14      1.0  0.0018723795343501284  0.0035191811898571085  0.9995424033696123  1.0000
  Al  Al15      1.0  0.009179853907625761  0.005517241265516129  0.9992969225603763  1.0000
  Al  Al16      1.0  0.004179854207620193  0.005517241430747168  0.9998288482001993  1.0000
  Al  Al17      1.0  0.004665061630741848  0.0056357638707495526  0.00012293287090514988  1.0000
  Al  Al18      1.0  0.009665062045019874  0.005635763765495766  0.9995910075432477  1.0000
  Al  Al19      1.0  0.009636721856728054  0.0034006585220071467  0.00012594773830583767  1.0000
  Al  Al20      1.0  0.004636721799586257  0.003400658365498324  0.9995940225119295  1.0000
  Al  Al21      1.0  0.006599847506830274  0.003400658516652834  0.9992709442370895  1.0000
  Al  Al22      1.0  0.0015998474496884767  0.003400658360144011  0.9998028695771586  1.0000
  Al  Al23      1.0  0.001628187459412182  0.005635763588638317  0.9992679290866582  1.0000
  Al  Al24      1.0  0.006628187695122093  0.005635764051892689  0.999799854607214  1.0000
  Al  Al25      1.0  0.00306256923014366  0.008554633549745116  0.9991333616963406  1.0000
  Al  Al26      1.0  0.008062568930149228  0.008554633384514076  0.9996652872026988  1.0000
  Al  Al27      1.0  0.005334938483541746  0.00048178873433727933  0.9994235411050519  1.0000
  Al  Al28      1.0  0.0003349384040789346  0.00048178873550562437  0.9999554667336016  1.0000
  Al  Al29      1.0  0.008202339907428462  0.0004817887100161044  0.9991966642660253  1.0000
  Al  Al30      1.0  0.0032023402074228932  0.000481788747605978  0.9997285899064009  1.0000
  Al  Al31      1.0  0.0059299706540303756  0.008554633712327077  0.999970336292554  1.0000
  Al  Al32      1.0  0.0009299706861726361  0.008554633271564175  0.999438410490492  1.0000
  Al  Al33      1.0  0.007404019009978603  0.0073964168547867  0.999396044397194  1.0000
  Al  Al34      1.0  0.002404019131404921  0.007396417005023426  0.9999279700314426  1.0000
  Al  Al35      1.0  0.0028041068843476552  0.0016400051992080688  0.9993534810446822  1.0000
  Al  Al36      1.0  0.007804107298625681  0.0016400052398299  0.9998854068625747  1.0000
  Rh  Rh1       1.0  0.007088301298270761  0.006875840582988411  0.9991408447665628  1.0000
  Rh  Rh2       1.0  0.0020883010625608505  0.00687584011973404  0.9996727703921884  1.0000
  Rh  Rh3       1.0  0.005405278249464262  0.0021605819365988085  0.9998518191779562  1.0000
  Rh  Rh4       1.0  0.00040527801375435043  0.0021605819109712905  0.9993198933656382  1.0000
  Rh  Rh5       1.0  0.0041766081964375885  0.0021605818344026012  0.9991891812063993  1.0000
  Rh  Rh6       1.0  0.009176608253579386  0.0021605818450358065  0.999721106723275  1.0000
  Rh  Rh7       1.0  0.005859631245244089  0.006875840334916586  0.9995420582316866  1.0000
  Rh  Rh8       1.0  0.0008596310988182345  0.006875840462661842  7.398385757363727e-05  1.0000
