data_image0
_chemical_formula_structural       COCu20Zn32
_chemical_formula_sum              "C1 O1 Cu20 Zn32"
_cell_length_a       7.788621425628662
_cell_length_b       7.788621745312971
_cell_length_c       108.15629577636719
_cell_angle_alpha    90.0
_cell_angle_beta     90.0
_cell_angle_gamma    109.47121980303646

_space_group_name_H-M_alt    "P 1"
_space_group_IT_number       1

loop_
  _space_group_symop_operation_xyz
  'x, y, z'

loop_
  _atom_site_type_symbol
  _atom_site_label
  _atom_site_symmetry_multiplicity
  _atom_site_fract_x
  _atom_site_fract_y
  _atom_site_fract_z
  _atom_site_occupancy
  C   C1        1.0  0.007608775099396714  0.009092314587015612  7.149220206991096e-05  1.0000
  O   O1        1.0  0.007608775099396714  0.009092314587015612  0.00018244242117562446  1.0000
  Cu  Cu1       1.0  0.008473673912288949  0.008473673589854031  0.9999883988503104  1.0000
  Cu  Cu2       1.0  0.0035028152989681747  0.0035028151250593273  0.9994089365509399  1.0000
  Cu  Cu3       1.0  0.0036794172765509878  0.00022834920016830124  0.9990238719024627  1.0000
  Cu  Cu4       1.0  0.008679417577688815  0.005228349357435251  0.9996118527886618  1.0000
  Cu  Cu5       1.0  0.00022834913840072757  0.003679417030779224  0.9990238719024627  1.0000
  Cu  Cu6       1.0  0.005228349193135606  0.00867941680756162  0.9996118527886618  1.0000
  Cu  Cu7       1.0  0.0035731467083835013  0.0035731456656076252  0.9998125701480757  1.0000
  Cu  Cu8       1.0  0.00850281531868041  0.008502815155498092  0.9992267878646359  1.0000
  Cu  Cu9       1.0  0.008805073310100737  0.0021657388809547882  0.9999730463811617  1.0000
  Cu  Cu10      1.0  0.003449125737199537  0.0070075722432820595  0.9994026226289413  1.0000
  Cu  Cu11      1.0  0.006669902687453879  0.00666990234789855  0.9990238719024627  1.0000
  Cu  Cu12      1.0  0.0016699023090173478  0.0016699023174597857  0.9996118527886618  1.0000
  Cu  Cu13      1.0  0.008786796290810915  0.008786795636441608  0.9996118527886618  1.0000
  Cu  Cu14      1.0  0.0037867962010533942  0.0037867961133155816  0.9990238719024627  1.0000
  Cu  Cu15      1.0  0.00701345274056702  0.003428311176266842  0.9998175129399415  1.0000
  Cu  Cu16      1.0  0.0020075725547061053  0.008449125741058099  0.9992331017866346  1.0000
  Cu  Cu17      1.0  0.003428311524263894  0.007013454027173522  0.9998175129399415  1.0000
  Cu  Cu18      1.0  0.00844912587301343  0.002007572593327849  0.9992331017866346  1.0000
  Cu  Cu19      1.0  0.0021657393011362313  0.008805072085162825  0.9999730463811617  1.0000
  Cu  Cu20      1.0  0.00700757298220349  0.0034491257106193337  0.9994026226289413  1.0000
  Zn  Zn1       1.0  0.006359247195136469  0.006359246348533365  0.9997431914042292  1.0000
  Zn  Zn2       1.0  0.001327381191210275  0.0013273811171851193  0.999153113868275  1.0000
  Zn  Zn3       1.0  0.00022834912306915912  0.00803028530018401  0.9990238719024627  1.0000
  Zn  Zn4       1.0  0.005228349371204396  0.003030285269745245  0.9996118527886618  1.0000
  Zn  Zn5       1.0  0.008030285233226185  0.00022834920016830124  0.9990238719024627  1.0000
  Zn  Zn6       1.0  0.0030302852665165386  0.005228349357435251  0.9996118527886618  1.0000
  Zn  Zn7       1.0  0.001327381191210275  0.0013273811171851193  0.9988946299366505  1.0000
  Zn  Zn8       1.0  0.006327381288221214  0.006327381020795699  0.9994826105473008  1.0000
  Zn  Zn9       1.0  0.005656495689121914  0.005656494421248212  0.9999874669447418  1.0000
  Zn  Zn10      1.0  0.0005614837034443774  0.0005614837196686237  0.9993931134446795  1.0000
  Zn  Zn11      1.0  0.0067553020480640115  0.0030351270625225534  0.9990238719024627  1.0000
  Zn  Zn12      1.0  0.001755302039078304  0.008035127092961319  0.9996118527886618  1.0000
  Zn  Zn13      1.0  0.0030351271569349428  0.006755301852378195  0.9990238719024627  1.0000
  Zn  Zn14      1.0  0.008035127489622304  0.0017553020755957996  0.9996118527886618  1.0000
  Zn  Zn15      1.0  0.001829795646697111  0.004937135104151874  0.0  1.0000
  Zn  Zn16      1.0  0.006964872921874719  0.009771650987537413  0.9994076442277238  1.0000
  Zn  Zn17      1.0  0.005351912937371136  0.008824959759141873  0.9988588386456352  1.0000
  Zn  Zn18      1.0  0.0003519130867631468  0.0038249602360158476  0.9994468195318342  1.0000
  Zn  Zn19      1.0  0.00882496026379995  0.0053519129846151614  0.9988588386456352  1.0000
  Zn  Zn20      1.0  0.0038249602863637757  0.0003519130810045812  0.9994468195318342  1.0000
  Zn  Zn21      1.0  0.004937131947786162  0.0018297949903362202  0.0  1.0000
  Zn  Zn22      1.0  0.009771651045989904  0.006964872744698607  0.9994076442277238  1.0000
  Zn  Zn23      1.0  0.005351912937371136  0.008824959759141873  0.9991889048837416  1.0000
  Zn  Zn24      1.0  0.00040165154526059627  0.003805934993692439  0.9997731870802755  1.0000
  Zn  Zn25      1.0  0.00882496026379995  0.0053519129846151614  0.9991889048837416  1.0000
  Zn  Zn26      1.0  0.00380593530828464  0.00040165189261377656  0.9997731870802755  1.0000
  Zn  Zn27      1.0  0.00971095459503376  0.006743876154879187  0.999834298262123  1.0000
  Zn  Zn28      1.0  0.004771650787128139  0.001964872714259842  0.999228080187852  1.0000
  Zn  Zn29      1.0  0.006743876216459196  0.009710956091489933  0.999834298262123  1.0000
  Zn  Zn30      1.0  0.0019648727877166696  0.004771650703442279  0.999228080187852  1.0000
  Zn  Zn31      1.0  0.0005517610977122139  0.0005517603734781186  0.999835650654947  1.0000
  Zn  Zn32      1.0  0.005561483715903194  0.005561483369622835  0.9992426109708963  1.0000
