data_image0
_chemical_formula_structural       COCa4Zn4Ca4Zn4
_chemical_formula_sum              "C1 O1 Ca8 Zn8"
_cell_length_a       8.763193130493164
_cell_length_b       6.201676191559233
_cell_length_c       100.82315826416016
_cell_angle_alpha    90.0
_cell_angle_beta     90.0
_cell_angle_gamma    110.68678366806124

_space_group_name_H-M_alt    "P 1"
_space_group_IT_number       1

loop_
  _space_group_symop_operation_xyz
  'x, y, z'

loop_
  _atom_site_type_symbol
  _atom_site_label
  _atom_site_symmetry_multiplicity
  _atom_site_fract_x
  _atom_site_fract_y
  _atom_site_fract_z
  _atom_site_occupancy
  C   C1        1.0  0.004991317967788799  0.009321425744034509  0.0001717206747996401  1.0000
  O   O1        1.0  0.004991317967788799  0.009321425744034509  0.0002907411907733075  1.0000
  Ca  Ca1       1.0  0.004270969708960792  0.006460821266439128  0.9995625571718451  1.0000
  Ca  Ca2       1.0  0.0007290303992026482  0.0022930638934980053  0.9993441891356724  1.0000
  Ca  Ca3       1.0  0.00426886033659909  0.006450903556183979  0.0  1.0000
  Ca  Ca4       1.0  0.0007306026086659629  0.0022955478156864067  0.9997797907334061  1.0000
  Zn  Zn1       1.0  0.002825408079141949  0.0006785747471637532  0.9995625571718451  1.0000
  Zn  Zn2       1.0  0.0021745919159641583  0.008075310332512227  0.9993441891356724  1.0000
  Zn  Zn3       1.0  0.0028525466806493776  0.0007566864270226654  0.9999998947699422  1.0000
  Zn  Zn4       1.0  0.0021308582942389407  0.007926957542060235  0.9997846449132064  1.0000
  Ca  Ca5       1.0  0.009270970253097102  0.006460821266439128  0.9995625571718451  1.0000
  Ca  Ca6       1.0  0.005729030637793667  0.0022930638934980053  0.9993441891356724  1.0000
  Ca  Ca7       1.0  0.009268860668182154  0.006450903556183979  0.0  1.0000
  Ca  Ca8       1.0  0.005730602581565424  0.0022955478156864067  0.9997797907334061  1.0000
  Zn  Zn5       1.0  0.00782540862327826  0.0006785747471637532  0.9995625571718451  1.0000
  Zn  Zn6       1.0  0.007174592247547223  0.008075310332512227  0.9993441891356724  1.0000
  Zn  Zn7       1.0  0.007852546799679196  0.0007566864270226654  0.9999998947699422  1.0000
  Zn  Zn8       1.0  0.007130858360130447  0.007926957542060235  0.9997846449132064  1.0000
