data_image0
_chemical_formula_structural       HV4Rh4V4Rh4V4Rh4V4Rh4
_chemical_formula_sum              "H1 V16 Rh16"
_cell_length_a       7.761406898498535
_cell_length_b       7.82917327184348
_cell_length_c       101.0456314086914
_cell_angle_alpha    104.34950025321311
_cell_angle_beta     90.0
_cell_angle_gamma    75.65049974678689

_space_group_name_H-M_alt    "P 1"
_space_group_IT_number       1

loop_
  _space_group_symop_operation_xyz
  'x, y, z'

loop_
  _atom_site_type_symbol
  _atom_site_label
  _atom_site_symmetry_multiplicity
  _atom_site_fract_x
  _atom_site_fract_y
  _atom_site_fract_z
  _atom_site_occupancy
  H   H1        1.0  0.0032972497477963057  0.008368869238847  0.0002332849449756703  1.0000
  V   V1        1.0  0.0034317833137622405  0.007837172415274226  0.9997555788086769  1.0000
  V   V2        1.0  0.004681783280739013  0.0028371725473671353  0.9996595651737323  1.0000
  V   V3        1.0  0.002181783280739013  0.0028371725473671353  0.9994675378987702  1.0000
  V   V4        1.0  0.0009317833137622405  0.007837172415274226  0.9995635515337147  1.0000
  Rh  Rh1       1.0  0.00405678332900373  0.005337172354308267  0.9995155447138034  1.0000
  Rh  Rh2       1.0  0.00030678339391430925  0.0003371724546480739  0.9998035856281735  1.0000
  Rh  Rh3       1.0  0.0028067833039187784  0.0003371724546480739  0.9996115583532114  1.0000
  Rh  Rh4       1.0  0.0015567833290037305  0.005337172354308267  0.9997075719887657  1.0000
  V   V5        1.0  0.003448319074040853  0.007764591933868811  0.00010545446369596183  1.0000
  V   V6        1.0  0.004693216645704967  0.0027912202183732345  2.8182946609262783e-05  1.0000
  V   V7        1.0  0.002181783280739013  0.0028371725473671353  0.9998515924486946  1.0000
  V   V8        1.0  0.0009212232547742645  0.007878786762310278  0.9999341959045276  1.0000
  Rh  Rh5       1.0  0.0040746285927259615  0.005267292664855528  0.9998960081764001  1.0000
  Rh  Rh6       1.0  0.00047257955326460567  0.009662828011487481  0.0001799269819600953  1.0000
  Rh  Rh7       1.0  0.0027352085208097367  0.0006217599920888947  1.193948769613522e-05  1.0000
  Rh  Rh8       1.0  0.0015602143293937205  0.005328276912942693  9.166778327176991e-05  1.0000
  V   V9        1.0  0.008431783793738403  0.007837172415274226  0.9997555788086769  1.0000
  V   V10       1.0  0.009681783760715176  0.0028371725473671353  0.9996595651737323  1.0000
  V   V11       1.0  0.0071817832807390125  0.0028371725473671353  0.9994675378987702  1.0000
  V   V12       1.0  0.0059317833137622405  0.007837172415274226  0.9995635515337147  1.0000
  Rh  Rh9       1.0  0.009056783808979892  0.005337172354308267  0.9995155447138034  1.0000
  Rh  Rh10      1.0  0.005306783303918779  0.0003371724546480739  0.9998035856281735  1.0000
  Rh  Rh11      1.0  0.0078067833039187785  0.0003371724546480739  0.9996115583532114  1.0000
  Rh  Rh12      1.0  0.00655678332900373  0.005337172354308267  0.9997075719887657  1.0000
  V   V13       1.0  0.008448319074040853  0.007764591933868811  0.00010545446369596183  1.0000
  V   V14       1.0  0.00969321712568113  0.0027912202183732345  2.8182946609262783e-05  1.0000
  V   V15       1.0  0.0071817832807390125  0.0028371725473671353  0.9998515924486946  1.0000
  V   V16       1.0  0.005921223254774265  0.007878786762310278  0.9999341959045276  1.0000
  Rh  Rh13      1.0  0.009074629072702125  0.005267292664855528  0.9998960081764001  1.0000
  Rh  Rh14      1.0  0.005472579793252687  0.009662828011487481  0.0001799269819600953  1.0000
  Rh  Rh15      1.0  0.007735208760797818  0.0006217599920888947  1.193948769613522e-05  1.0000
  Rh  Rh16      1.0  0.00656021432939372  0.005328276912942693  9.166778327176991e-05  1.0000
