data_image0
_chemical_formula_structural       HAs4Cu12Se16
_chemical_formula_sum              "H1 As4 Cu12 Se16"
_cell_length_a       8.07667064666748
_cell_length_b       6.952235432833911
_cell_length_c       109.44779205322266
_cell_angle_alpha    90.49378504309122
_cell_angle_beta     90.0
_cell_angle_gamma    90.0

_space_group_name_H-M_alt    "P 1"
_space_group_IT_number       1

loop_
  _space_group_symop_operation_xyz
  'x, y, z'

loop_
  _atom_site_type_symbol
  _atom_site_label
  _atom_site_symmetry_multiplicity
  _atom_site_fract_x
  _atom_site_fract_y
  _atom_site_fract_z
  _atom_site_occupancy
  H   H1        1.0  0.0053927046703431325  0.0016782380534993563  0.00011348254698914336  1.0000
  As  As1       1.0  0.008772579251654533  0.004166666702390702  0.9991814885582397  1.0000
  As  As2       1.0  0.0037725789472355833  0.007500000064303265  0.9988811337305694  1.0000
  As  As3       1.0  0.0037725789472355833  0.0008333333404781405  0.9994818433859101  1.0000
  As  As4       1.0  0.008769013860013983  0.00756494207510443  0.9997913050949574  1.0000
  Cu  Cu1       1.0  0.001272578910336317  0.009166667281120087  0.999181488569959  1.0000
  Cu  Cu2       1.0  0.006272578753514433  0.0025000000214344216  0.9988811337191434  1.0000
  Cu  Cu3       1.0  0.006272578753514433  0.005833333383346984  0.999481843397336  1.0000
  Cu  Cu4       1.0  0.0012858042993667614  0.0024542737017376557  0.9997936091290287  1.0000
  Cu  Cu5       1.0  0.001272578910336317  0.005833333383346984  0.999481843397336  1.0000
  Cu  Cu6       1.0  0.006272578753514433  0.009166667281120087  0.999181488569959  1.0000
  Cu  Cu7       1.0  0.006260431976172402  0.0024581541358522562  0.999793569319527  1.0000
  Cu  Cu8       1.0  0.001272578910336317  0.0025000000214344216  0.9988811337191434  1.0000
  Cu  Cu9       1.0  0.008772579251654533  0.0008333333404781405  0.9994818433859101  1.0000
  Cu  Cu10      1.0  0.0037725789472355833  0.004166666702390702  0.9991814885582397  1.0000
  Cu  Cu11      1.0  0.0037703036462054624  0.007460924577723031  0.9997810745865149  1.0000
  Cu  Cu12      1.0  0.008772579251654533  0.007500000064303265  0.9988811337305694  1.0000
  Se  Se1       1.0  0.0013177365787994761  0.0024197173950380375  0.9991027826771977  1.0000
  Se  Se2       1.0  0.0053927046703431325  0.0016567665234784423  9.069611808679497e-07  1.0000
  Se  Se3       1.0  0.006317736537287801  0.009086384654723704  0.9994031375280131  1.0000
  Se  Se4       1.0  0.0013177365787994761  0.005753050756950599  0.9997034923553901  1.0000
  Se  Se5       1.0  0.008772579251654533  0.004216844415609527  0.9994130840626195  1.0000
  Se  Se6       1.0  0.0037725789472355833  0.0075501775095918175  0.9991127292348025  1.0000
  Se  Se7       1.0  0.0037725789472355833  0.0008835107857666935  0.9997134388901432  1.0000
  Se  Se8       1.0  0.008755876798603094  0.007808180964031805  0.9999990501274282  1.0000
  Se  Se9       1.0  0.006227420969741066  0.0024197173950380375  0.9991027826771977  1.0000
  Se  Se10      1.0  0.0021700472557100287  0.0016432337673866597  1.0030258836278328e-06  1.0000
  Se  Se11      1.0  0.0012274211265629496  0.009086384654723704  0.9994031375280131  1.0000
  Se  Se12      1.0  0.006227420969741066  0.005753050756950599  0.9997034923553901  1.0000
  Se  Se13      1.0  0.008772579251654533  0.00761038787180748  0.9991073042714965  1.0000
  Se  Se14      1.0  0.003792520233417676  0.008650504972682944  0.9999939607343747  1.0000
  Se  Se15      1.0  0.0037725789472355833  0.004277054509894918  0.9994076590991668  1.0000
  Se  Se16      1.0  0.008772579251654533  0.0009437212149649233  0.9997080133822795  1.0000
