data_image0
_chemical_formula_structural       HSn14Ir10Sn14Ir10
_chemical_formula_sum              "H1 Sn28 Ir20"
_cell_length_a       8.708159446716309
_cell_length_b       8.708159446716309
_cell_length_c       109.42827606201172
_cell_angle_alpha    90.0
_cell_angle_beta     90.0
_cell_angle_gamma    90.0

_space_group_name_H-M_alt    "P 1"
_space_group_IT_number       1

loop_
  _space_group_symop_operation_xyz
  'x, y, z'

loop_
  _atom_site_type_symbol
  _atom_site_label
  _atom_site_symmetry_multiplicity
  _atom_site_fract_x
  _atom_site_fract_y
  _atom_site_fract_z
  _atom_site_occupancy
  H   H1        1.0  0.006282581062749154  0.0021450943612957686  8.36068672046812e-05  1.0000
  Sn  Sn1       1.0  0.0005649397368410029  0.003217641328047116  0.9999420339374313  1.0000
  Sn  Sn2       1.0  0.0005649397368410029  0.008927452810796254  0.9999420339374313  1.0000
  Sn  Sn3       1.0  0.00985512808083567  0.008217641430717454  0.9996417744176717  1.0000
  Sn  Sn4       1.0  0.00985512808083567  0.003927452708125916  0.9996417744176717  1.0000
  Sn  Sn5       1.0  0.0027100340446626374  0.006072547069421685  0.9996997404802405  1.0000
  Sn  Sn6       1.0  0.007710034147332975  0.006072547069421685  8.346851558005752e-06  1.0000
  Sn  Sn7       1.0  0.0027100340446626374  0.006072547069421685  0.0  1.0000
  Sn  Sn8       1.0  0.005564939786037206  0.008217641430717454  0.9996417744176717  1.0000
  Sn  Sn9       1.0  0.005564939786037206  0.003927452708125916  0.9996417744176717  1.0000
  Sn  Sn10      1.0  0.004855127978165332  0.003217641328047116  0.9999420339374313  1.0000
  Sn  Sn11      1.0  0.004855127978165332  0.008927452810796254  0.9999420339374313  1.0000
  Sn  Sn12      1.0  0.007710034147332975  0.0010725471806478843  0.0  1.0000
  Sn  Sn13      1.0  0.0027100340446626374  0.0010725471806478843  0.9997080873317984  1.0000
  Sn  Sn14      1.0  0.007710034147332975  0.0010725471806478843  0.9996997404802405  1.0000
  Ir  Ir1       1.0  0.0027100340446626374  0.00863770941737239  0.999542150354114  1.0000
  Ir  Ir2       1.0  0.00014487175018606602  0.006072547069421685  0.9998424098738735  1.0000
  Ir  Ir3       1.0  0.005275196392613343  0.006072547069421685  0.9998424098738735  1.0000
  Ir  Ir4       1.0  0.0027100340446626374  0.0035073847214709794  0.999542150354114  1.0000
  Ir  Ir5       1.0  0.007710034147332975  0.006072547069421685  0.9996487415658235  1.0000
  Ir  Ir6       1.0  0.007710034147332975  0.003637709314702053  0.9998424098738735  1.0000
  Ir  Ir7       1.0  0.005144871799382269  0.0010725471806478843  0.999542150354114  1.0000
  Ir  Ir8       1.0  0.00027519634341713936  0.0010725471806478843  0.999542150354114  1.0000
  Ir  Ir9       1.0  0.007710034147332975  0.008507384824141317  0.9998424098738735  1.0000
  Ir  Ir10      1.0  0.0027100340446626374  0.0010725471806478843  0.9999490010855832  1.0000
  Sn  Sn15      1.0  0.0005649397368410029  0.003217641328047116  0.9993415148979121  1.0000
  Sn  Sn16      1.0  0.0005649397368410029  0.008927452810796254  0.9993415148979121  1.0000
  Sn  Sn17      1.0  0.00985512808083567  0.008217641430717454  0.9990412551058068  1.0000
  Sn  Sn18      1.0  0.00985512808083567  0.003927452708125916  0.9990412551058068  1.0000
  Sn  Sn19      1.0  0.0027100340446626374  0.006072547069421685  0.9990992208960298  1.0000
  Sn  Sn20      1.0  0.007710034147332975  0.006072547069421685  0.9994078272673473  1.0000
  Sn  Sn21      1.0  0.0027100340446626374  0.006072547069421685  0.9993994809604808  1.0000
  Sn  Sn22      1.0  0.005564939786037206  0.008217641430717454  0.9990412551058068  1.0000
  Sn  Sn23      1.0  0.005564939786037206  0.003927452708125916  0.9990412551058068  1.0000
  Sn  Sn24      1.0  0.004855127978165332  0.003217641328047116  0.9993415148979121  1.0000
  Sn  Sn25      1.0  0.004855127978165332  0.008927452810796254  0.9993415148979121  1.0000
  Sn  Sn26      1.0  0.007710034147332975  0.0010725471806478843  0.9993994809604808  1.0000
  Sn  Sn27      1.0  0.0027100340446626374  0.0010725471806478843  0.9991075677475878  1.0000
  Sn  Sn28      1.0  0.007710034147332975  0.0010725471806478843  0.9990992208960298  1.0000
  Ir  Ir11      1.0  0.0027100340446626374  0.00863770941737239  0.998941631042249  1.0000
  Ir  Ir12      1.0  0.00014487175018606602  0.006072547069421685  0.9992418908343543  1.0000
  Ir  Ir13      1.0  0.005275196392613343  0.006072547069421685  0.9992418908343543  1.0000
  Ir  Ir14      1.0  0.0027100340446626374  0.0035073847214709794  0.998941631042249  1.0000
  Ir  Ir15      1.0  0.007710034147332975  0.006072547069421685  0.9990482219816129  1.0000
  Ir  Ir16      1.0  0.007710034147332975  0.003637709314702053  0.9992418908343543  1.0000
  Ir  Ir17      1.0  0.005144871799382269  0.0010725471806478843  0.998941631042249  1.0000
  Ir  Ir18      1.0  0.00027519634341713936  0.0010725471806478843  0.998941631042249  1.0000
  Ir  Ir19      1.0  0.007710034147332975  0.008507384824141317  0.9992418908343543  1.0000
  Ir  Ir20      1.0  0.0027100340446626374  0.0010725471806478843  0.9993484815013725  1.0000
