data_image0
_chemical_formula_structural       COMn2As2Mn2As2Mn2As2Mn2As2Mn2As2Mn2As2Mn2As2Mn2As2
_chemical_formula_sum              "C1 O1 Mn16 As16"
_cell_length_a       7.0900324364000085
_cell_length_b       7.090032577514648
_cell_length_c       101.99816131591797
_cell_angle_alpha    90.0
_cell_angle_beta     90.0
_cell_angle_gamma    120.000000658394

_space_group_name_H-M_alt    "P 1"
_space_group_IT_number       1

loop_
  _space_group_symop_operation_xyz
  'x, y, z'

loop_
  _atom_site_type_symbol
  _atom_site_label
  _atom_site_symmetry_multiplicity
  _atom_site_fract_x
  _atom_site_fract_y
  _atom_site_fract_z
  _atom_site_occupancy
  C   C1        1.0  0.002498912666178399  0.004166122190599209  5.876364237002288e-05  1.0000
  O   O1        1.0  0.002498912666178399  0.004166122190599209  0.000176413060397545  1.0000
  Mn  Mn1       1.0  0.002498912666178399  0.004166122190599209  0.9998889522075639  1.0000
  Mn  Mn2       1.0  0.002501661366576106  0.004167497854364065  0.9996217234058261  1.0000
  As  As1       1.0  0.004161299728780171  0.002497315561645043  0.9997495519613395  1.0000
  As  As2       1.0  0.000831671998103919  0.0008325019918592673  0.0  1.0000
  Mn  Mn3       1.0  0.002501661366576106  0.004167497854364065  0.9993602962274283  1.0000
  Mn  Mn4       1.0  0.002501661366576106  0.004167497854364065  0.9990988684646607  1.0000
  As  As3       1.0  0.0041683278593191925  0.0025008312031937555  0.9992295823460444  1.0000
  As  As4       1.0  0.0008349947221554787  0.0008341647002901989  0.9994910098166272  1.0000
  Mn  Mn5       1.0  0.002498912666178399  0.009166122117039512  0.9998889522075639  1.0000
  Mn  Mn6       1.0  0.002501661366576106  0.009167498043517568  0.9996217234058261  1.0000
  As  As5       1.0  0.004161299728780171  0.007497315291050446  0.9997495519613395  1.0000
  As  As6       1.0  0.000831671998103919  0.005832501951138721  0.0  1.0000
  Mn  Mn7       1.0  0.002501661366576106  0.009167498043517568  0.9993602962274283  1.0000
  Mn  Mn8       1.0  0.002501661366576106  0.009167498043517568  0.9990988684646607  1.0000
  As  As7       1.0  0.0041683278593191925  0.0075008309325991585  0.9992295823460444  1.0000
  As  As8       1.0  0.0008349947221554787  0.005834164364017303  0.9994910098166272  1.0000
  Mn  Mn9       1.0  0.007498912751117822  0.004166122368366219  0.9998889522075639  1.0000
  Mn  Mn10      1.0  0.007501661148160447  0.004167497847614383  0.9996217234058261  1.0000
  As  As9       1.0  0.009161299813719595  0.0024973157065729026  0.9997495519613395  1.0000
  As  As10      1.0  0.0058316720072045716  0.0008325020660285917  0.0  1.0000
  Mn  Mn11      1.0  0.007501661148160447  0.004167497847614383  0.9993602962274283  1.0000
  Mn  Mn12      1.0  0.007501661148160447  0.004167497847614383  0.9990988684646607  1.0000
  As  As11      1.0  0.009168327944258614  0.002500831348121616  0.9992295823460444  1.0000
  As  As12      1.0  0.005834994958772442  0.000834164855378529  0.9994910098166272  1.0000
  Mn  Mn13      1.0  0.007498912751117822  0.009166122327645672  0.9998889522075639  1.0000
  Mn  Mn14      1.0  0.007501661148160447  0.009167497577019785  0.9996217234058261  1.0000
  As  As13      1.0  0.009161299813719595  0.007497315501656606  0.9997495519613395  1.0000
  As  As14      1.0  0.0058316720072045716  0.005832501861112295  0.0  1.0000
  Mn  Mn15      1.0  0.007501661148160447  0.009167497577019785  0.9993602962274283  1.0000
  Mn  Mn16      1.0  0.007501661148160447  0.009167497577019785  0.9990988684646607  1.0000
  As  As15      1.0  0.009168327944258614  0.0075008311432053195  0.9992295823460444  1.0000
  As  As16      1.0  0.005834994958772442  0.005834164650462232  0.9994910098166272  1.0000
