data_image0
_chemical_formula_structural       HGa8Ir4Rh4Ga8Ir4Rh4Ga8Ir4Rh4Ga8Ir4Rh4
_chemical_formula_sum              "H1 Ga32 Ir16 Rh16"
_cell_length_a       8.661855697631836
_cell_length_b       8.661855697631836
_cell_length_c       106.74913787841797
_cell_angle_alpha    90.0
_cell_angle_beta     90.0
_cell_angle_gamma    90.0

_space_group_name_H-M_alt    "P 1"
_space_group_IT_number       1

loop_
  _space_group_symop_operation_xyz
  'x, y, z'

loop_
  _atom_site_type_symbol
  _atom_site_label
  _atom_site_symmetry_multiplicity
  _atom_site_fract_x
  _atom_site_fract_y
  _atom_site_fract_z
  _atom_site_occupancy
  H   H1        1.0  0.0012500000086015986  0.001250000223641564  0.00011392926604345982  1.0000
  Ga  Ga1       1.0  0.0025000002322431627  0.0025000000172031973  0.9992937007520393  1.0000
  Ga  Ga2       1.0  3.499999863554596e-10  1.49999999645503e-10  0.9992937007520393  1.0000
  Ga  Ga3       1.0  3.499999863554596e-10  1.49999999645503e-10  0.9990068197443785  1.0000
  Ga  Ga4       1.0  0.0025000002322431627  0.0025000000172031973  0.9990068197443785  1.0000
  Ga  Ga5       1.0  0.002500002167602851  0.0025000013074429894  0.9998795429257146  1.0000
  Ga  Ga6       1.0  0.009999999208652927  0.009999997488333206  0.9998795429257146  1.0000
  Ga  Ga7       1.0  3.499999863554596e-10  1.49999999645503e-10  0.999580581480519  1.0000
  Ga  Ga8       1.0  0.0025000002322431627  0.0025000000172031973  0.999580581480519  1.0000
  Ir  Ir1       1.0  3.499999863554596e-10  0.0025000000172031973  0.9994371411162791  1.0000
  Ir  Ir2       1.0  0.0025000002322431627  1.49999999645503e-10  0.9991502601086184  1.0000
  Ir  Ir3       1.0  0.009999999208652927  0.0025000006623230936  0.9999970267232154  1.0000
  Ir  Ir4       1.0  0.0025000002322431627  1.49999999645503e-10  0.999724021844759  1.0000
  Rh  Rh1       1.0  0.0025000002322431627  1.49999999645503e-10  0.9994371411162791  1.0000
  Rh  Rh2       1.0  3.499999863554596e-10  0.0025000000172031973  0.9991502601086184  1.0000
  Rh  Rh3       1.0  0.0025000002322431627  0.010000000068812789  0.0  1.0000
  Rh  Rh4       1.0  3.499999863554596e-10  0.0025000000172031973  0.999724021844759  1.0000
  Ga  Ga9       1.0  0.0025000002322431627  0.007499999621529661  0.9992937007520393  1.0000
  Ga  Ga10      1.0  3.499999863554596e-10  0.0050000000344063945  0.9992937007520393  1.0000
  Ga  Ga11      1.0  3.499999863554596e-10  0.0050000000344063945  0.9990068197443785  1.0000
  Ga  Ga12      1.0  0.0025000002322431627  0.007499999621529661  0.9990068197443785  1.0000
  Ga  Ga13      1.0  0.002500002167602851  0.007500001341849384  0.9998795429257146  1.0000
  Ga  Ga14      1.0  0.009999999208652927  0.00499999745392681  0.9998795429257146  1.0000
  Ga  Ga15      1.0  3.499999863554596e-10  0.0050000000344063945  0.999580581480519  1.0000
  Ga  Ga16      1.0  0.0025000002322431627  0.007499999621529661  0.999580581480519  1.0000
  Ir  Ir5       1.0  3.499999863554596e-10  0.007499999621529661  0.9994371411162791  1.0000
  Ir  Ir6       1.0  0.0025000002322431627  0.0050000000344063945  0.9991502601086184  1.0000
  Ir  Ir7       1.0  0.009999999208652927  0.007500000481689523  0.9999970267232154  1.0000
  Ir  Ir8       1.0  0.0025000002322431627  0.0050000000344063945  0.999724021844759  1.0000
  Rh  Rh5       1.0  0.0025000002322431627  0.0050000000344063945  0.9994371411162791  1.0000
  Rh  Rh6       1.0  3.499999863554596e-10  0.007499999621529661  0.9991502601086184  1.0000
  Rh  Rh7       1.0  0.0025000002322431627  0.004999999604326464  0.0  1.0000
  Rh  Rh8       1.0  3.499999863554596e-10  0.007499999621529661  0.999724021844759  1.0000
  Ga  Ga17      1.0  0.007500000481689523  0.0025000000172031973  0.9992937007520393  1.0000
  Ga  Ga18      1.0  0.005000000464486325  1.49999999645503e-10  0.9992937007520393  1.0000
  Ga  Ga19      1.0  0.005000000464486325  1.49999999645503e-10  0.9990068197443785  1.0000
  Ga  Ga20      1.0  0.007500000481689523  0.0025000000172031973  0.9990068197443785  1.0000
  Ga  Ga21      1.0  0.007500002202009246  0.0025000013074429894  0.9998795429257146  1.0000
  Ga  Ga22      1.0  0.004999999174246534  0.009999997488333206  0.9998795429257146  1.0000
  Ga  Ga23      1.0  0.005000000464486325  1.49999999645503e-10  0.999580581480519  1.0000
  Ga  Ga24      1.0  0.007500000481689523  0.0025000000172031973  0.999580581480519  1.0000
  Ir  Ir9       1.0  0.005000000464486325  0.0025000000172031973  0.9994371411162791  1.0000
  Ir  Ir10      1.0  0.007500000481689523  1.49999999645503e-10  0.9991502601086184  1.0000
  Ir  Ir11      1.0  0.004999999604326464  0.0025000006623230936  0.9999970267232154  1.0000
  Ir  Ir12      1.0  0.007500000481689523  1.49999999645503e-10  0.999724021844759  1.0000
  Rh  Rh9       1.0  0.007500000481689523  1.49999999645503e-10  0.9994371411162791  1.0000
  Rh  Rh10      1.0  0.005000000464486325  0.0025000000172031973  0.9991502601086184  1.0000
  Rh  Rh11      1.0  0.007500000481689523  0.010000000068812789  0.0  1.0000
  Rh  Rh12      1.0  0.005000000464486325  0.0025000000172031973  0.999724021844759  1.0000
  Ga  Ga25      1.0  0.007500000481689523  0.007499999621529661  0.9992937007520393  1.0000
  Ga  Ga26      1.0  0.005000000464486325  0.0050000000344063945  0.9992937007520393  1.0000
  Ga  Ga27      1.0  0.005000000464486325  0.0050000000344063945  0.9990068197443785  1.0000
  Ga  Ga28      1.0  0.007500000481689523  0.007499999621529661  0.9990068197443785  1.0000
  Ga  Ga29      1.0  0.007500002202009246  0.007500001341849384  0.9998795429257146  1.0000
  Ga  Ga30      1.0  0.004999999174246534  0.00499999745392681  0.9998795429257146  1.0000
  Ga  Ga31      1.0  0.005000000464486325  0.0050000000344063945  0.999580581480519  1.0000
  Ga  Ga32      1.0  0.007500000481689523  0.007499999621529661  0.999580581480519  1.0000
  Ir  Ir13      1.0  0.005000000464486325  0.007499999621529661  0.9994371411162791  1.0000
  Ir  Ir14      1.0  0.007500000481689523  0.0050000000344063945  0.9991502601086184  1.0000
  Ir  Ir15      1.0  0.004999999604326464  0.007500000481689523  0.9999970267232154  1.0000
  Ir  Ir16      1.0  0.007500000481689523  0.0050000000344063945  0.999724021844759  1.0000
  Rh  Rh13      1.0  0.007500000481689523  0.0050000000344063945  0.9994371411162791  1.0000
  Rh  Rh14      1.0  0.005000000464486325  0.007499999621529661  0.9991502601086184  1.0000
  Rh  Rh15      1.0  0.007500000481689523  0.004999999604326464  0.0  1.0000
  Rh  Rh16      1.0  0.005000000464486325  0.007499999621529661  0.999724021844759  1.0000
