data_image0
_chemical_formula_structural       HSn28Pd20Sn28Pd20
_chemical_formula_sum              "H1 Sn56 Pd40"
_cell_length_a       8.836050987243652
_cell_length_b       13.399665561492172
_cell_length_c       127.85526275634766
_cell_angle_alpha    71.171075886237
_cell_angle_beta     90.0
_cell_angle_gamma    90.0

_space_group_name_H-M_alt    "P 1"
_space_group_IT_number       1

loop_
  _space_group_symop_operation_xyz
  'x, y, z'

loop_
  _atom_site_type_symbol
  _atom_site_label
  _atom_site_symmetry_multiplicity
  _atom_site_fract_x
  _atom_site_fract_y
  _atom_site_fract_z
  _atom_site_occupancy
  H   H1        1.0  0.006268497081062173  0.001976462327873791  0.9999331469150553  1.0000
  Sn  Sn1       1.0  2.4014548198004173e-05  0.0019904341470618273  0.9997781459108658  1.0000
  Sn  Sn2       1.0  2.4014548198004173e-05  0.0069904342469308215  0.9990239693812465  1.0000
  Sn  Sn3       1.0  0.0025240144335092842  0.0058298325765159115  0.9992090896587046  1.0000
  Sn  Sn4       1.0  0.0025240144335092842  0.0008298325500800005  0.9984549130401198  1.0000
  Sn  Sn5       1.0  0.004987019369158225  0.004381658724081623  0.9993886809391  1.0000
  Sn  Sn6       1.0  0.004987019369158225  0.009381658677084449  0.9986345044144485  1.0000
  Sn  Sn7       1.0  0.0024870193438621493  0.003438607852629947  0.999598554635438  1.0000
  Sn  Sn8       1.0  0.0024870193438621493  0.008438607511900438  0.9988443781207218  1.0000
  Sn  Sn9       1.0  0.0049684891502364045  0.005995891803143954  0.9995448965909283  1.0000
  Sn  Sn10      1.0  0.0049684891502364045  0.0009958919970072951  0.998790719964892  1.0000
  Sn  Sn11      1.0  0.0024684893357409623  0.0018243747735676166  0.9994423389836097  1.0000
  Sn  Sn12      1.0  0.0024684893357409623  0.006824374432838107  0.9986881624688935  1.0000
  Sn  Sn13      1.0  0.004114974247650177  0.00016013339703674926  0.9996821622414851  1.0000
  Sn  Sn14      1.0  0.004114974247650177  0.00516013342347266  0.9989279852481613  1.0000
  Sn  Sn15      1.0  0.0025240144335092842  0.0044904339766970724  0.9986468813137418  1.0000
  Sn  Sn16      1.0  0.0025240144335092842  0.009490433635967561  0.9994010579447458  1.0000
  Sn  Sn17      1.0  2.4014548198004173e-05  0.008329832553017325  0.9995861782023331  1.0000
  Sn  Sn18      1.0  2.4014548198004173e-05  0.0033298326000144977  0.9988320015812644  1.0000
  Sn  Sn19      1.0  0.0024870193438621493  0.006881658700583037  0.9997657694827286  1.0000
  Sn  Sn20      1.0  0.0024870193438621493  0.0018816588944463779  0.9990115928566923  1.0000
  Sn  Sn21      1.0  0.004987019369158225  0.005938607535399024  0.9984672895770933  1.0000
  Sn  Sn22      1.0  0.004987019369158225  0.0009386078761285338  0.9992214665579979  1.0000
  Sn  Sn23      1.0  0.0024684893357409623  0.008495891779645368  0.9984136315226482  1.0000
  Sn  Sn24      1.0  0.0024684893357409623  0.00349589182664254  0.9991678085134882  1.0000
  Sn  Sn25      1.0  0.0049684891502364045  0.00432437475006903  0.9998194275272382  1.0000
  Sn  Sn26      1.0  0.0049684891502364045  0.00932437440933952  0.999065251012522  1.0000
  Sn  Sn27      1.0  0.0016149742223541006  0.0026601334469712468  0.9985508971707212  1.0000
  Sn  Sn28      1.0  0.0016149742223541006  0.007660133399974073  0.9993050737917898  1.0000
  Pd  Pd1       1.0  0.0049814002674611465  0.0023234111799377414  0.9995514098628765  1.0000
  Pd  Pd2       1.0  0.0049814002674611465  0.0073234109860744  0.9987972333431926  1.0000
  Pd  Pd3       1.0  0.00248140024216507  0.005496855249907661  0.9994358257166293  1.0000
  Pd  Pd4       1.0  0.00248140024216507  0.0004968554804875442  0.998681649089351  1.0000
  Pd  Pd5       1.0  1.2980549683530573e-05  0.0048398664825329936  0.9991514168642485  1.0000
  Pd  Pd6       1.0  1.2980549683530573e-05  0.00983986643553582  0.9983972403395969  1.0000
  Pd  Pd7       1.0  0.002512980495929369  0.0029804000941785766  0.9998358187102895  1.0000
  Pd  Pd8       1.0  0.002512980495929369  0.007980399753449066  0.9990816421955733  1.0000
  Pd  Pd9       1.0  0.004946877026047052  0.0026601334469712468  0.999305073510487  1.0000
  Pd  Pd10      1.0  0.004946877026047052  0.007660133399974073  0.9985508969858354  1.0000
  Pd  Pd11      1.0  0.00248140024216507  0.004823411009572986  0.9984201452657525  1.0000
  Pd  Pd12      1.0  0.00248140024216507  0.009823410962575814  0.9991743218868211  1.0000
  Pd  Pd13      1.0  0.0049814002674611465  0.007996855226409074  0.9998129142602578  1.0000
  Pd  Pd14      1.0  0.0049814002674611465  0.002996855273406247  0.9990587376391892  1.0000
  Pd  Pd15      1.0  0.002512980495929369  0.007339866459034406  0.999528505407877  1.0000
  Pd  Pd16      1.0  0.002512980495929369  0.00233986650603158  0.9987743287868084  1.0000
  Pd  Pd17      1.0  1.2980549683530573e-05  0.005480399776947653  0.9987045541181332  1.0000
  Pd  Pd18      1.0  1.2980549683530573e-05  0.0004804001911102477  0.9994587306303656  1.0000
  Pd  Pd19      1.0  0.0024468772115516105  0.00516013342347266  0.9996821620541155  1.0000
  Pd  Pd20      1.0  0.0024468772115516105  0.00016013339703674926  0.9989279854355309  1.0000
  Sn  Sn29      1.0  0.00502401445880536  0.0019904341470618273  0.9997781459108658  1.0000
  Sn  Sn30      1.0  0.00502401445880536  0.0069904342469308215  0.9990239693812465  1.0000
  Sn  Sn31      1.0  0.007524014273300803  0.0058298325765159115  0.9992090896587046  1.0000
  Sn  Sn32      1.0  0.007524014273300803  0.0008298325500800005  0.9984549130401198  1.0000
  Sn  Sn33      1.0  0.00998701899814911  0.004381658724081623  0.9993886809391  1.0000
  Sn  Sn34      1.0  0.00998701899814911  0.009381658677084449  0.9986345044144485  1.0000
  Sn  Sn35      1.0  0.0074870187620524  0.003438607852629947  0.999598554635438  1.0000
  Sn  Sn36      1.0  0.0074870187620524  0.008438607511900438  0.9988443781207218  1.0000
  Sn  Sn37      1.0  0.00996848877922729  0.005995891803143954  0.9995448965909283  1.0000
  Sn  Sn38      1.0  0.00996848877922729  0.0009958919970072951  0.998790719964892  1.0000
  Sn  Sn39      1.0  0.007468489386333115  0.0018243747735676166  0.9994423389836097  1.0000
  Sn  Sn40      1.0  0.007468489386333115  0.006824374432838107  0.9986881624688935  1.0000
  Sn  Sn41      1.0  0.009114973876641062  0.00016013339703674926  0.9996821622414851  1.0000
  Sn  Sn42      1.0  0.009114973876641062  0.00516013342347266  0.9989279852481613  1.0000
  Sn  Sn43      1.0  0.007524014273300803  0.0044904339766970724  0.9986468813137418  1.0000
  Sn  Sn44      1.0  0.007524014273300803  0.009490433635967561  0.9994010579447458  1.0000
  Sn  Sn45      1.0  0.00502401445880536  0.008329832553017325  0.9995861782023331  1.0000
  Sn  Sn46      1.0  0.00502401445880536  0.0033298326000144977  0.9988320015812644  1.0000
  Sn  Sn47      1.0  0.0074870187620524  0.006881658700583037  0.9997657694827286  1.0000
  Sn  Sn48      1.0  0.0074870187620524  0.0018816588944463779  0.9990115928566923  1.0000
  Sn  Sn49      1.0  0.00998701899814911  0.005938607535399024  0.9984672895770933  1.0000
  Sn  Sn50      1.0  0.00998701899814911  0.0009386078761285338  0.9992214665579979  1.0000
  Sn  Sn51      1.0  0.007468489386333115  0.008495891779645368  0.9984136315226482  1.0000
  Sn  Sn52      1.0  0.007468489386333115  0.00349589182664254  0.9991678085134882  1.0000
  Sn  Sn53      1.0  0.00996848877922729  0.00432437475006903  0.9998194275272382  1.0000
  Sn  Sn54      1.0  0.00996848877922729  0.00932437440933952  0.999065251012522  1.0000
  Sn  Sn55      1.0  0.0066149740621456185  0.0026601334469712468  0.9985508971707212  1.0000
  Sn  Sn56      1.0  0.0066149740621456185  0.007660133399974073  0.9993050737917898  1.0000
  Pd  Pd21      1.0  0.00998139989645203  0.0023234111799377414  0.9995514098628765  1.0000
  Pd  Pd22      1.0  0.00998139989645203  0.0073234109860744  0.9987972333431926  1.0000
  Pd  Pd23      1.0  0.007481400503557856  0.005496855249907661  0.9994358257166293  1.0000
  Pd  Pd24      1.0  0.007481400503557856  0.0004968554804875442  0.998681649089351  1.0000
  Pd  Pd25      1.0  0.005012980310424811  0.0048398664825329936  0.9991514168642485  1.0000
  Pd  Pd26      1.0  0.005012980310424811  0.00983986643553582  0.9983972403395969  1.0000
  Pd  Pd27      1.0  0.007512980124920254  0.0029804000941785766  0.9998358187102895  1.0000
  Pd  Pd28      1.0  0.007512980124920254  0.007980399753449066  0.9990816421955733  1.0000
  Pd  Pd29      1.0  0.009946876655037937  0.0026601334469712468  0.999305073510487  1.0000
  Pd  Pd30      1.0  0.009946876655037937  0.007660133399974073  0.9985508969858354  1.0000
  Pd  Pd31      1.0  0.007481400503557856  0.004823411009572986  0.9984201452657525  1.0000
  Pd  Pd32      1.0  0.007481400503557856  0.009823410962575814  0.9991743218868211  1.0000
  Pd  Pd33      1.0  0.00998139989645203  0.007996855226409074  0.9998129142602578  1.0000
  Pd  Pd34      1.0  0.00998139989645203  0.002996855273406247  0.9990587376391892  1.0000
  Pd  Pd35      1.0  0.007512980124920254  0.007339866459034406  0.999528505407877  1.0000
  Pd  Pd36      1.0  0.007512980124920254  0.00233986650603158  0.9987743287868084  1.0000
  Pd  Pd37      1.0  0.005012980310424811  0.005480399776947653  0.9987045541181332  1.0000
  Pd  Pd38      1.0  0.005012980310424811  0.0004804001911102477  0.9994587306303656  1.0000
  Pd  Pd39      1.0  0.007446877262143763  0.00516013342347266  0.9996821620541155  1.0000
  Pd  Pd40      1.0  0.007446877262143763  0.00016013339703674926  0.9989279854355309  1.0000
