data_image0
_chemical_formula_structural       HNi12Sn8
_chemical_formula_sum              "H1 Ni12 Sn8"
_cell_length_a       5.27303409576416
_cell_length_b       8.295161247253418
_cell_length_c       41.188838958740234
_cell_angle_alpha    90.0
_cell_angle_beta     90.0
_cell_angle_gamma    90.0

_space_group_name_H-M_alt    "P 1"
_space_group_IT_number       1

loop_
  _space_group_symop_operation_xyz
  'x, y, z'

loop_
  _atom_site_type_symbol
  _atom_site_label
  _atom_site_symmetry_multiplicity
  _atom_site_fract_x
  _atom_site_fract_y
  _atom_site_fract_z
  _atom_site_occupancy
  H   H1        1.0  0.0024999784311819824  0.00718936737829852  9.57261081294796e-05  1.0000
  Ni  Ni1       1.0  0.007499999406557251  0.0062545743609787735  0.9985710917532098  1.0000
  Ni  Ni2       1.0  0.0024999998021857503  0.0037454252258566144  0.998882681682278  1.0000
  Ni  Ni3       1.0  0.005045538564102759  0.006236067280932506  0.9991406682467837  1.0000
  Ni  Ni4       1.0  5.937079550227649e-05  0.0036940385509312544  0.0  1.0000
  Ni  Ni5       1.0  0.004954460997879974  0.0012360674875148121  0.9991874673156481  1.0000
  Ni  Ni6       1.0  4.553879690981954e-05  0.0012360674875148121  0.9991874673156481  1.0000
  Ni  Ni7       1.0  0.00494052745666308  0.0036940131772350004  6.1502034701479715e-09  1.0000
  Ni  Ni8       1.0  0.009954460955491205  0.006236067280932506  0.9991406682467837  1.0000
  Ni  Ni9       1.0  0.004934051159422098  0.008752816848539572  0.999952410810878  1.0000
  Ni  Ni10      1.0  0.007500002232475104  0.008625246885615456  0.9994344171591383  1.0000
  Ni  Ni11      1.0  6.608869768099924e-05  0.008752772837526603  0.9999524014046844  1.0000
  Ni  Ni12      1.0  0.0025000522582859074  0.001244872272387831  0.9998043381503541  1.0000
  Sn  Sn1       1.0  0.00749988707632257  0.006093460820699262  0.9997886493430784  1.0000
  Sn  Sn2       1.0  0.007499999406557251  0.0035738125889776934  0.9988989153252258  1.0000
  Sn  Sn3       1.0  0.0024999998021857503  0.006426187222403679  0.998554858110262  1.0000
  Sn  Sn4       1.0  0.0025000582633613465  0.00861424413237271  0.9994013196582754  1.0000
  Sn  Sn5       1.0  0.007500101846079444  0.0013163095564572267  0.9997875256647267  1.0000
  Sn  Sn6       1.0  0.007499999406557251  0.009029528458031155  0.998833863537792  1.0000
  Sn  Sn7       1.0  0.002499795453000962  0.004062512448829383  0.9994849982413602  1.0000
  Sn  Sn8       1.0  0.0024999998021857503  0.0009704710165312407  0.9986199098976958  1.0000
