data_image0
_chemical_formula_structural       COVCu3Se4VCu3Se4
_chemical_formula_sum              "C1 O1 V2 Cu6 Se8"
_cell_length_a       5.705760478973389
_cell_length_b       5.705760478973389
_cell_length_c       104.23455810546875
_cell_angle_alpha    90.0
_cell_angle_beta     90.0
_cell_angle_gamma    90.0

_space_group_name_H-M_alt    "P 1"
_space_group_IT_number       1

loop_
  _space_group_symop_operation_xyz
  'x, y, z'

loop_
  _atom_site_type_symbol
  _atom_site_label
  _atom_site_symmetry_multiplicity
  _atom_site_fract_x
  _atom_site_fract_y
  _atom_site_fract_z
  _atom_site_occupancy
  C   C1        1.0  0.004999999294868136  0.004999999294868136  0.00016616863005986137  1.0000
  O   O1        1.0  0.004999999294868136  0.004999999294868136  0.00028129325793911273  1.0000
  V   V1        1.0  4.999999850763523e-11  4.999999850763523e-11  0.999315967254655  1.0000
  Cu  Cu1       1.0  0.0049999999477680105  4.999999850763523e-11  0.999315967254655  1.0000
  Cu  Cu2       1.0  4.999999850763523e-11  0.0049999999477680105  0.999315967254655  1.0000
  Cu  Cu3       1.0  4.999999850763523e-11  4.999999850763523e-11  0.9990422690679313  1.0000
  Se  Se1       1.0  0.002420201571919648  0.002420201571919648  0.9994484481241791  1.0000
  Se  Se2       1.0  0.0075797979971664355  0.002420201571919648  0.9991834863851309  1.0000
  Se  Se3       1.0  0.0075797979971664355  0.0075797979971664355  0.9994484481241791  1.0000
  Se  Se4       1.0  0.002420201571919648  0.0075797979971664355  0.9991834863851309  1.0000
  V   V2        1.0  1.499999955229057e-10  0.009999999242636146  0.9998646845597776  1.0000
  Cu  Cu4       1.0  0.004999999621318073  4.999999850763523e-11  0.9998689286960945  1.0000
  Cu  Cu5       1.0  0.009999999242636146  0.004999999621318073  0.9998689103974738  1.0000
  Cu  Cu6       1.0  4.999999850763523e-11  4.999999850763523e-11  0.9995896654413788  1.0000
  Se  Se5       1.0  0.0022745711124231324  0.0022746501133079004  0.0  1.0000
  Se  Se6       1.0  0.0075859966285713  0.0024139296525039137  0.9997324455751446  1.0000
  Se  Se7       1.0  0.007725427966988045  0.007725348966103277  0.0  1.0000
  Se  Se8       1.0  0.002414002777289815  0.007586069753357201  0.9997324455751446  1.0000
