data_image0
_chemical_formula_structural       HGe4Rh4Ge4Rh4Ge4Rh4
_chemical_formula_sum              "H1 Ge12 Rh12"
_cell_length_a       5.777704238891602
_cell_length_b       6.599783420562744
_cell_length_c       102.98625183105469
_cell_angle_alpha    90.0
_cell_angle_beta     90.0
_cell_angle_gamma    90.0

_space_group_name_H-M_alt    "P 1"
_space_group_IT_number       1

loop_
  _space_group_symop_operation_xyz
  'x, y, z'

loop_
  _atom_site_type_symbol
  _atom_site_label
  _atom_site_symmetry_multiplicity
  _atom_site_fract_x
  _atom_site_fract_y
  _atom_site_fract_z
  _atom_site_occupancy
  H   H1        1.0  0.007381581518032432  0.007580129650136709  0.00010848567489966006  1.0000
  Ge  Ge1       1.0  0.008072816856272372  0.0044670795317869  0.999363425385747  1.0000
  Ge  Ge2       1.0  0.001927182679493236  0.005693177149408605  0.9992032764206384  1.0000
  Ge  Ge3       1.0  0.003072817088389568  0.0006931771409417583  0.999363425385747  1.0000
  Ge  Ge4       1.0  0.0069271824473760395  0.00946707932858258  0.9992032764206384  1.0000
  Rh  Rh1       1.0  0.009960210779745416  0.008048271764411016  0.999363425385747  1.0000
  Rh  Rh2       1.0  3.9788997808937464e-05  0.002111984634556266  0.9992032764206384  1.0000
  Rh  Rh3       1.0  0.004960210689477618  0.007111984713580169  0.999363425385747  1.0000
  Rh  Rh4       1.0  0.00503978884628799  0.0030482719676153368  0.9992032764206384  1.0000
  Ge  Ge5       1.0  0.008072816856272372  0.0044670795317869  0.9996837227372011  1.0000
  Ge  Ge6       1.0  0.001927182679493236  0.005693177149408605  0.9995235743508556  1.0000
  Ge  Ge7       1.0  0.003072817088389568  0.0006931771409417583  0.9996837227372011  1.0000
  Ge  Ge8       1.0  0.0069271824473760395  0.00946707932858258  0.9995235743508556  1.0000
  Rh  Rh5       1.0  0.009960210779745416  0.008048271764411016  0.9996837227372011  1.0000
  Rh  Rh6       1.0  3.9788997808937464e-05  0.002111984634556266  0.9995235743508556  1.0000
  Rh  Rh7       1.0  0.004960210689477618  0.007111984713580169  0.9996837227372011  1.0000
  Rh  Rh8       1.0  0.00503978884628799  0.0030482719676153368  0.9995235743508556  1.0000
  Ge  Ge9       1.0  0.008037522791845386  0.0046458606688301336  0.0  1.0000
  Ge  Ge10      1.0  0.0019705410433649394  0.005674639270786574  0.9998451114129199  1.0000
  Ge  Ge11      1.0  0.0030375252806575438  0.0005144013309562402  0.0  1.0000
  Ge  Ge12      1.0  0.006970525820345499  0.009485598015685423  0.999845111991683  1.0000
  Rh  Rh9       1.0  0.009881573342348971  0.007981448587970204  0.9999888530222436  1.0000
  Rh  Rh10      1.0  7.389869532514265e-05  0.002166126873579963  0.9998530045843966  1.0000
  Rh  Rh11      1.0  0.004881589048945903  0.007178810147846768  0.9999888530222436  1.0000
  Rh  Rh12      1.0  0.005073878157990559  0.0029941318453033145  0.9998530045843966  1.0000
