data_image0
_chemical_formula_structural       HCu6Pt6Cu6Pt6Cu6Pt6
_chemical_formula_sum              "H1 Cu18 Pt18"
_cell_length_a       4.794005870819092
_cell_length_b       13.254464295450097
_cell_length_c       100.44602966308594
_cell_angle_alpha    102.05331346471951
_cell_angle_beta     90.0
_cell_angle_gamma    90.0

_space_group_name_H-M_alt    "P 1"
_space_group_IT_number       1

loop_
  _space_group_symop_operation_xyz
  'x, y, z'

loop_
  _atom_site_type_symbol
  _atom_site_label
  _atom_site_symmetry_multiplicity
  _atom_site_fract_x
  _atom_site_fract_y
  _atom_site_fract_z
  _atom_site_occupancy
  H   H1        1.0  0.005063009501595374  0.007794347538943579  0.00020237413318483974  1.0000
  Cu  Cu1       1.0  3.95849006109307e-05  1.092449964325149e-06  0.9996003937941463  1.0000
  Cu  Cu2       1.0  0.005039585038541306  1.092449964325149e-06  0.9994626173596041  1.0000
  Cu  Cu3       1.0  0.0017062515808763667  0.006667759167275056  0.9993707664995819  1.0000
  Cu  Cu4       1.0  0.0067062517673737755  0.006667759167275056  0.9995085429341243  1.0000
  Cu  Cu5       1.0  0.0033729183097088366  0.0033344256346809907  0.9994166919248  1.0000
  Cu  Cu6       1.0  0.008372918496206245  0.0033344256346809907  0.9995544683593424  1.0000
  Pt  Pt1       1.0  0.0033729183097088366  0.008334425933572089  0.9995544684387864  1.0000
  Pt  Pt2       1.0  0.008372918496206245  0.008334425933572089  0.999416692004244  1.0000
  Pt  Pt3       1.0  0.005039585038541306  0.005001092400978024  0.9996003938640046  1.0000
  Pt  Pt4       1.0  3.95849006109307e-05  0.005001092400978024  0.9994626174294622  1.0000
  Pt  Pt5       1.0  0.0017062515808763667  0.0016677591557792443  0.9995085428625995  1.0000
  Pt  Pt6       1.0  0.0067062517673737755  0.0016677591557792443  0.9993707664280571  1.0000
  Cu  Cu7       1.0  0.009960414743878385  0.009998907346114125  0.9998715963145561  1.0000
  Cu  Cu8       1.0  0.005039585038541306  1.092449964325149e-06  0.9997381705253886  1.0000
  Cu  Cu9       1.0  0.0017062515808763667  0.006667759167275056  0.9996463193686667  1.0000
  Cu  Cu10      1.0  0.0067062517673737755  0.006667759167275056  0.999784095803209  1.0000
  Cu  Cu11      1.0  0.0033729183097088366  0.0033344256346809907  0.9996922447938847  1.0000
  Cu  Cu12      1.0  0.008372918496206245  0.0033344256346809907  0.999830021525127  1.0000
  Pt  Pt7       1.0  0.0033729183097088366  0.008334425933572089  0.9998300213078711  1.0000
  Pt  Pt8       1.0  0.008372918496206245  0.008334425933572089  0.9996922448733288  1.0000
  Pt  Pt9       1.0  0.0050312054768519915  0.00500665809808734  0.999874254921154  1.0000
  Pt  Pt10      1.0  3.95849006109307e-05  0.005001092400978024  0.9997381702985468  1.0000
  Pt  Pt11      1.0  0.0017062515808763667  0.0016677591557792443  0.9997840960283841  1.0000
  Pt  Pt12      1.0  0.0067062517673737755  0.0016677591557792443  0.9996463192971419  1.0000
  Cu  Cu13      1.0  0.00024613231047617367  0.00998265111915495  0.00012584205183959434  1.0000
  Cu  Cu14      1.0  0.005194079880346247  5.369385023364685e-05  2.1652766721311365e-05  1.0000
  Cu  Cu15      1.0  0.0016554735817593202  0.006662610768121059  0.9999272249566681  1.0000
  Cu  Cu16      1.0  0.0067098239698206415  0.006686243282491559  5.697619841521829e-05  1.0000
  Cu  Cu17      1.0  0.0033444199515325563  0.0033239710563609656  0.999971461032578  1.0000
  Cu  Cu18      1.0  0.008388921528007584  0.0033233505699384203  9.157592578190165e-05  1.0000
  Pt  Pt13      1.0  0.003416195421906374  0.00834438532981428  9.468201539406467e-05  1.0000
  Pt  Pt14      1.0  0.008365933391182342  0.0083229623104028  0.9999688392606593  1.0000
  Pt  Pt15      1.0  0.005154981864246001  0.004976957519647537  0.00013601707081636722  1.0000
  Pt  Pt16      1.0  0.00011207089454287074  0.005005161918228251  1.6953026476249245e-05  1.0000
  Pt  Pt17      1.0  0.0016112908886554273  0.0016431789554530501  5.229880291850747e-05  1.0000
  Pt  Pt18      1.0  0.006625832530648487  0.0016661539094091065  0.9999231316323403  1.0000
