data_image0
_chemical_formula_structural       Pt4Sn8CO
_chemical_formula_sum              "Pt4 Sn8 C1 O1"
_cell_length_a       4.657598972320557
_cell_length_b       4.657598972320557
_cell_length_c       30.478961944580078
_cell_angle_alpha    90.0
_cell_angle_beta     90.0
_cell_angle_gamma    90.0

_space_group_name_H-M_alt    "P 1"
_space_group_IT_number       1

loop_
  _space_group_symop_operation_xyz
  'x, y, z'

loop_
  _atom_site_type_symbol
  _atom_site_label
  _atom_site_symmetry_multiplicity
  _atom_site_fract_x
  _atom_site_fract_y
  _atom_site_fract_z
  _atom_site_occupancy
  Pt  Pt1       1.0  9.999999525082991e-11  3.000000095892999e-10  0.9979625097013384  1.0000
  Pt  Pt2       1.0  0.004999999984003387  0.0050000003839187  0.9968819544053995  1.0000
  Pt  Pt3       1.0  0.009999999968006774  0.009999999968006774  0.0  1.0000
  Pt  Pt4       1.0  0.004999999984003387  0.0050000003839187  0.9990430645083773  1.0000
  Sn  Sn1       1.0  0.004999999984003387  3.000000095892999e-10  0.99634167700188  1.0000
  Sn  Sn2       1.0  9.999999525082991e-11  0.0050000003839187  0.99634167700188  1.0000
  Sn  Sn3       1.0  9.999999525082991e-11  0.0050000003839187  0.9974222320533689  1.0000
  Sn  Sn4       1.0  0.004999999984003387  3.000000095892999e-10  0.9974222320533689  1.0000
  Sn  Sn5       1.0  0.004999999984003387  3.000000095892999e-10  0.9985027871048578  1.0000
  Sn  Sn6       1.0  9.999999525082991e-11  0.0050000003839187  0.9985027871048578  1.0000
  Sn  Sn7       1.0  0.009999999968006774  0.0050000003839187  0.9995876544978415  1.0000
  Sn  Sn8       1.0  0.004999999984003387  0.009999999968006774  0.9995876540089416  1.0000
  C   C1        1.0  0.009999999968006774  0.0050000003839187  0.00024384468778430507  1.0000
  O   O1        1.0  0.009999999968006774  0.0050000003839187  0.0006375587039700361  1.0000
