data_image0
_chemical_formula_structural       HSn24Sr8
_chemical_formula_sum              "H1 Sn24 Sr8"
_cell_length_a       9.081315041051548
_cell_length_b       13.108276985590809
_cell_length_c       105.0074462890625
_cell_angle_alpha    85.135685887155
_cell_angle_beta     86.4913656261359
_cell_angle_gamma    73.79121297657599

_space_group_name_H-M_alt    "P 1"
_space_group_IT_number       1

loop_
  _space_group_symop_operation_xyz
  'x, y, z'

loop_
  _atom_site_type_symbol
  _atom_site_label
  _atom_site_symmetry_multiplicity
  _atom_site_fract_x
  _atom_site_fract_y
  _atom_site_fract_z
  _atom_site_occupancy
  H   H1        1.0  0.00828078149495385  0.005607261993900511  0.00010353070800723405  1.0000
  Sn  Sn1       1.0  0.009129189745978206  0.00490520260680183  0.9998146920790077  1.0000
  Sn  Sn2       1.0  0.0016291898988336291  0.008030202428782324  0.9996063291766646  1.0000
  Sn  Sn3       1.0  0.004129189668539271  0.001155202553395978  0.999397966403699  1.0000
  Sn  Sn4       1.0  0.006629189351527502  0.00428020252372606  0.9991896036555307  1.0000
  Sn  Sn5       1.0  0.007751047447985722  0.004560667213219784  0.9994701080930788  1.0000
  Sn  Sn6       1.0  0.00025104760084114486  0.007685667035200277  0.9992617449069242  1.0000
  Sn  Sn7       1.0  0.002751047466542671  0.008310667414975225  0.999886833330059  1.0000
  Sn  Sn8       1.0  0.005251047412894268  0.0014356670945401123  0.9996784705608697  1.0000
  Sn  Sn9       1.0  0.004994762397073312  0.006627880464809598  0.9996998307535642  1.0000
  Sn  Sn10      1.0  0.007494762021179558  0.00975288058348927  0.9994914677203256  1.0000
  Sn  Sn11      1.0  0.009994762260752393  0.002877880559753335  0.9992831049464436  1.0000
  Sn  Sn12      1.0  0.002494762655203096  0.003502880642829105  0.9999081937842854  1.0000
  Sn  Sn13      1.0  0.0008708101372690472  0.0050947978323129545  0.9993347593245164  1.0000
  Sn  Sn14      1.0  0.0033708100330059106  0.005719797618689546  0.9999598477537737  1.0000
  Sn  Sn15      1.0  0.005870809657112157  0.008844797737369217  0.999751485288158  1.0000
  Sn  Sn16      1.0  0.008370809955566976  0.0019697975652836937  0.9995431219479117  1.0000
  Sn  Sn17      1.0  0.002248952229768928  0.005439333225895001  0.9996793435953444  1.0000
  Sn  Sn18      1.0  0.004748952264860382  0.008564333344574673  0.9994709805599306  1.0000
  Sn  Sn19      1.0  0.007248951800226772  0.0016893330241395592  0.9992626180767279  1.0000
  Sn  Sn20      1.0  0.009748952194677475  0.002314333107215329  0.999887706500205  1.0000
  Sn  Sn21      1.0  0.0050052369874601  0.0033721196776060084  0.9994496209395516  1.0000
  Sn  Sn22      1.0  0.007505236611566346  0.00649711979628568  0.999241257906313  1.0000
  Sn  Sn23      1.0  5.237329273624014e-06  0.007122119582662271  0.9998663467455846  1.0000
  Sn  Sn24      1.0  0.0025052371799419953  0.0002471195032952408  0.9996579834067268  1.0000
  Sr  Sr1       1.0  0.00854166646016284  0.006927083190917728  0.9995573620331778  1.0000
  Sr  Sr2       1.0  0.0010416666463738745  5.208330162360864e-05  0.9993489993887085  1.0000
  Sr  Sr3       1.0  0.0035416666537601777  0.000677083324432358  0.9999740880986835  1.0000
  Sr  Sr4       1.0  0.0060416667182926235  0.003802083368937235  0.999765725063899  1.0000
  Sr  Sr5       1.0  0.0014583332476271467  0.0030729166547987  0.9995920890937448  1.0000
  Sr  Sr6       1.0  0.0039583329594620265  0.006197917070177549  0.9993837266245242  1.0000
  Sr  Sr7       1.0  0.00645833323008142  0.009322916595458865  0.999175363594145  1.0000
  Sr  Sr8       1.0  0.008958332684797739  0.009947916975233813  0.9998004523032666  1.0000
