data_image0
_chemical_formula_structural       HNi9Sn3Ni9Sn3Ni9Sn3Ni9Sn3
_chemical_formula_sum              "H1 Ni36 Sn12"
_cell_length_a       8.471036774095506
_cell_length_b       8.471036911010742
_cell_length_c       101.12458038330078
_cell_angle_alpha    90.0
_cell_angle_beta     90.0
_cell_angle_gamma    120.00000053465942

_space_group_name_H-M_alt    "P 1"
_space_group_IT_number       1

loop_
  _space_group_symop_operation_xyz
  'x, y, z'

loop_
  _atom_site_type_symbol
  _atom_site_label
  _atom_site_symmetry_multiplicity
  _atom_site_fract_x
  _atom_site_fract_y
  _atom_site_fract_z
  _atom_site_occupancy
  H   H1        1.0  0.004166666734373369  0.004999999998671918  0.00012183505184350703  1.0000
  Ni  Ni1       1.0  0.0024999999898439947  0.00416666662640723  0.9996580173367723  1.0000
  Ni  Ni2       1.0  0.004166666734373369  0.0025000000877249216  0.0  1.0000
  Ni  Ni3       1.0  0.0008333333722646872  0.0008333333516995905  0.9993160346735447  1.0000
  Ni  Ni4       1.0  0.0024999999898439947  0.00416666662640723  0.9994015303393516  1.0000
  Ni  Ni5       1.0  0.004166666734373369  0.0025000000877249216  0.9997435130025792  1.0000
  Ni  Ni6       1.0  0.0008333333722646872  0.0008333333516995905  0.999059547381415  1.0000
  Ni  Ni7       1.0  0.0008333333722646872  0.0008333333516995905  0.9995725216709654  1.0000
  Ni  Ni8       1.0  0.0024999999898439947  0.00416666662640723  0.999914504334193  1.0000
  Ni  Ni9       1.0  0.004166666734373369  0.0025000000877249216  0.9992305390077377  1.0000
  Sn  Sn1       1.0  0.0008333333722646872  0.0008333333516995905  0.9998290086683862  1.0000
  Sn  Sn2       1.0  0.0024999999898439947  0.00416666662640723  0.9991450430472218  1.0000
  Sn  Sn3       1.0  0.004166666734373369  0.0025000000877249216  0.9994870260051585  1.0000
  Ni  Ni10      1.0  0.0024999999898439947  0.009166666943040134  0.9996580173367723  1.0000
  Ni  Ni11      1.0  0.004166666734373369  0.00750000015698837  0.0  1.0000
  Ni  Ni12      1.0  0.0008333333722646872  0.005833333475934028  0.9993160346735447  1.0000
  Ni  Ni13      1.0  0.0024999999898439947  0.009166666943040134  0.9994015303393516  1.0000
  Ni  Ni14      1.0  0.004166666734373369  0.00750000015698837  0.9997435130025792  1.0000
  Ni  Ni15      1.0  0.0008333333722646872  0.005833333475934028  0.999059547381415  1.0000
  Ni  Ni16      1.0  0.0008333333722646872  0.005833333475934028  0.9995725216709654  1.0000
  Ni  Ni17      1.0  0.0024999999898439947  0.009166666943040134  0.999914504334193  1.0000
  Ni  Ni18      1.0  0.004166666734373369  0.00750000015698837  0.9992305390077377  1.0000
  Sn  Sn4       1.0  0.0008333333722646872  0.005833333475934028  0.9998290086683862  1.0000
  Sn  Sn5       1.0  0.0024999999898439947  0.009166666943040134  0.9991450430472218  1.0000
  Sn  Sn6       1.0  0.004166666734373369  0.00750000015698837  0.9994870260051585  1.0000
  Ni  Ni19      1.0  0.007500000223432117  0.004166666722312316  0.9996580173367723  1.0000
  Ni  Ni20      1.0  0.009166667221861626  0.0025000003655510643  0.0  1.0000
  Ni  Ni21      1.0  0.00583333322500261  0.0008333333671215561  0.9993160346735447  1.0000
  Ni  Ni22      1.0  0.007500000223432117  0.004166666722312316  0.9994015303393516  1.0000
  Ni  Ni23      1.0  0.009166667221861626  0.0025000003655510643  0.9997435130025792  1.0000
  Ni  Ni24      1.0  0.00583333322500261  0.0008333333671215561  0.999059547381415  1.0000
  Ni  Ni25      1.0  0.00583333322500261  0.0008333333671215561  0.9995725216709654  1.0000
  Ni  Ni26      1.0  0.007500000223432117  0.004166666722312316  0.999914504334193  1.0000
  Ni  Ni27      1.0  0.009166667221861626  0.0025000003655510643  0.9992305390077377  1.0000
  Sn  Sn7       1.0  0.00583333322500261  0.0008333333671215561  0.9998290086683862  1.0000
  Sn  Sn8       1.0  0.007500000223432117  0.004166666722312316  0.9991450430472218  1.0000
  Sn  Sn9       1.0  0.009166667221861626  0.0025000003655510643  0.9994870260051585  1.0000
  Ni  Ni28      1.0  0.007500000223432117  0.009166666901517745  0.9996580173367723  1.0000
  Ni  Ni29      1.0  0.009166667221861626  0.007500000242416047  0.0  1.0000
  Ni  Ni30      1.0  0.00583333322500261  0.005833333243986538  0.9993160346735447  1.0000
  Ni  Ni31      1.0  0.007500000223432117  0.009166666901517745  0.9994015303393516  1.0000
  Ni  Ni32      1.0  0.009166667221861626  0.007500000242416047  0.9997435130025792  1.0000
  Ni  Ni33      1.0  0.00583333322500261  0.005833333243986538  0.999059547381415  1.0000
  Ni  Ni34      1.0  0.00583333322500261  0.005833333243986538  0.9995725216709654  1.0000
  Ni  Ni35      1.0  0.007500000223432117  0.009166666901517745  0.999914504334193  1.0000
  Ni  Ni36      1.0  0.009166667221861626  0.007500000242416047  0.9992305390077377  1.0000
  Sn  Sn10      1.0  0.00583333322500261  0.005833333243986538  0.9998290086683862  1.0000
  Sn  Sn11      1.0  0.007500000223432117  0.009166666901517745  0.9991450430472218  1.0000
  Sn  Sn12      1.0  0.009166667221861626  0.007500000242416047  0.9994870260051585  1.0000
