data_image0
_chemical_formula_structural       Al6Sb6H
_chemical_formula_sum              "Al6 Sb6 H1"
_cell_length_a       6.281612873077393
_cell_length_b       7.693373201764391
_cell_length_c       103.82752227783203
_cell_angle_alpha    94.3477531571556
_cell_angle_beta     90.0
_cell_angle_gamma    114.0948423809336

_space_group_name_H-M_alt    "P 1"
_space_group_IT_number       1

loop_
  _space_group_symop_operation_xyz
  'x, y, z'

loop_
  _atom_site_type_symbol
  _atom_site_label
  _atom_site_symmetry_multiplicity
  _atom_site_fract_x
  _atom_site_fract_y
  _atom_site_fract_z
  _atom_site_occupancy
  Al  Al1       1.0  0.0018009595418663658  0.003629508382176661  0.9998384377871665  1.0000
  Al  Al2       1.0  0.007604166363458003  0.005204213518857585  0.9995529518411314  1.0000
  Al  Al3       1.0  0.0037464983330259857  0.001031676662145644  5.795264909433076e-06  1.0000
  Al  Al4       1.0  0.004687499736234957  0.009370879972613943  0.9996887035815278  1.0000
  Al  Al5       1.0  0.0005208333492590507  0.0010375469985667558  0.9994171998133243  1.0000
  Al  Al6       1.0  0.00912665275161376  0.007893215894902566  0.9999626130737609  1.0000
  Sb  Sb1       1.0  0.003645833398274752  0.0022875469480005575  0.9996208276320955  1.0000
  Sb  Sb2       1.0  0.009479166398286465  0.003954213635958255  0.9993493237356971  1.0000
  Sb  Sb3       1.0  0.007662742696106021  0.0006291195563219986  0.9999000124167963  1.0000
  Sb  Sb4       1.0  0.0065624998056773316  0.008120880355852499  0.9994850757646254  1.0000
  Sb  Sb5       1.0  0.004883578499094347  0.004905251250515924  4.6695162722079544e-05  1.0000
  Sb  Sb6       1.0  0.0007291668056656166  0.006454213667894801  0.9997565799480607  1.0000
  H   H1        1.0  0.00777372890477051  0.007330592419698066  6.658683266471664e-05  1.0000
