data_image0
_chemical_formula_structural       COCa2Al18Co4Ca2Al18Co4
_chemical_formula_sum              "C1 O1 Ca4 Al36 Co8"
_cell_length_a       13.754860877990723
_cell_length_b       7.769189357757568
_cell_length_c       101.76548767089844
_cell_angle_alpha    90.0
_cell_angle_beta     90.0
_cell_angle_gamma    90.0

_space_group_name_H-M_alt    "P 1"
_space_group_IT_number       1

loop_
  _space_group_symop_operation_xyz
  'x, y, z'

loop_
  _atom_site_type_symbol
  _atom_site_label
  _atom_site_symmetry_multiplicity
  _atom_site_fract_x
  _atom_site_fract_y
  _atom_site_fract_z
  _atom_site_occupancy
  C   C1        1.0  0.005530656311366755  0.0025000027714832183  0.9999755286225187  1.0000
  O   O1        1.0  0.005530656311366755  0.0025000027714832183  9.344703074669122e-05  1.0000
  Ca  Ca1       1.0  0.005530656311366755  2.8499998529488855e-09  0.9998053283500915  1.0000
  Ca  Ca2       1.0  0.0005313889889941196  3.4999998845937124e-10  0.9994315012776634  1.0000
  Al  Al1       1.0  0.007604019758834092  1.0499999939582646e-09  0.0  1.0000
  Al  Al2       1.0  0.0030313888860770254  3.4999998845937124e-10  0.9996265914144251  1.0000
  Al  Al3       1.0  0.0055313891894116195  3.4999998845937124e-10  0.9994315012776634  1.0000
  Al  Al4       1.0  0.0005311786860370476  8.499999842213948e-10  0.9998203013352744  1.0000
  Al  Al5       1.0  0.0034606734196111675  1.0499999939582646e-09  0.9999999484578823  1.0000
  Al  Al6       1.0  0.008031388951077295  3.4999998845937124e-10  0.9996265914144251  1.0000
  Al  Al7       1.0  0.004468821378963223  0.002500000374006386  0.9992900767352488  1.0000
  Al  Al8       1.0  0.009468821173129034  0.002500000374006386  0.9996802567159192  1.0000
  Al  Al9       1.0  0.008406253633515097  0.002500000374006386  0.9994315012776634  1.0000
  Al  Al10      1.0  0.003422035092415131  0.0025000010932494355  0.999813243579389  1.0000
  Al  Al11      1.0  0.006593956729025558  0.002500000374006386  0.9992900767352488  1.0000
  Al  Al12      1.0  0.001593956664025287  0.002500000374006386  0.9996802567159192  1.0000
  Al  Al13      1.0  0.004468821378963223  0.002500000374006386  0.9995729255272252  1.0000
  Al  Al14      1.0  0.009453574276449928  0.002500000613754069  0.999952047087979  1.0000
  Al  Al15      1.0  0.0026565244744736834  0.002500000374006386  0.9994315012776634  1.0000
  Al  Al16      1.0  0.007640414493375416  0.0025000008535017524  0.9998133255782126  1.0000
  Al  Al17      1.0  0.006593956729025558  0.002500000374006386  0.9995729255272252  1.0000
  Al  Al18      1.0  0.001610194273153807  0.002500001572744802  0.9999520090170967  1.0000
  Co  Co1       1.0  0.003864722410800043  3.4999998845937124e-10  0.9994315012776634  1.0000
  Co  Co2       1.0  0.008840659104991695  0.009999999578044077  0.9998317753135147  1.0000
  Co  Co3       1.0  0.007198055697188737  3.4999998845937124e-10  0.9994315012776634  1.0000
  Co  Co4       1.0  0.002223673051120303  1.4500000134320044e-09  0.9998318625836913  1.0000
  Ca  Ca3       1.0  0.005530656311366755  0.005000002665994237  0.9998053283500915  1.0000
  Ca  Ca4       1.0  0.0005313889889941196  0.005000000268517405  0.9994315012776634  1.0000
  Al  Al19      1.0  0.007604019758834092  0.005000000748012772  0.0  1.0000
  Al  Al20      1.0  0.0030313888860770254  0.005000000268517405  0.9996265914144251  1.0000
  Al  Al21      1.0  0.0055313891894116195  0.005000000268517405  0.9994315012776634  1.0000
  Al  Al22      1.0  0.0005311786860370476  0.005000000748012772  0.9998203013352744  1.0000
  Al  Al23      1.0  0.0034606734196111675  0.005000000748012772  0.9999999484578823  1.0000
  Al  Al24      1.0  0.008031388951077295  0.005000000268517405  0.9996265914144251  1.0000
  Al  Al25      1.0  0.004468821378963223  0.007500000402776107  0.9992900767352488  1.0000
  Al  Al26      1.0  0.009468821173129034  0.007500000402776107  0.9996802567159192  1.0000
  Al  Al27      1.0  0.008406253633515097  0.007500000402776107  0.9994315012776634  1.0000
  Al  Al28      1.0  0.003422035092415131  0.0075000008822714735  0.999813243579389  1.0000
  Al  Al29      1.0  0.006593956729025558  0.007500000402776107  0.9992900767352488  1.0000
  Al  Al30      1.0  0.001593956664025287  0.007500000402776107  0.9996802567159192  1.0000
  Al  Al31      1.0  0.004468821378963223  0.007500000402776107  0.9995729255272252  1.0000
  Al  Al32      1.0  0.009453574276449928  0.007500000402776107  0.999952047087979  1.0000
  Al  Al33      1.0  0.0026565244744736834  0.007500000402776107  0.9994315012776634  1.0000
  Al  Al34      1.0  0.007640414493375416  0.0075000008822714735  0.9998133255782126  1.0000
  Al  Al35      1.0  0.006593956729025558  0.007500000402776107  0.9995729255272252  1.0000
  Al  Al36      1.0  0.001610194273153807  0.0075000013617668405  0.9999520090170967  1.0000
  Co  Co5       1.0  0.003864722410800043  0.005000000268517405  0.9994315012776634  1.0000
  Co  Co6       1.0  0.008840659104991695  0.0049999997890220384  0.9998317753135147  1.0000
  Co  Co7       1.0  0.007198055697188737  0.005000000268517405  0.9994315012776634  1.0000
  Co  Co8       1.0  0.002223673051120303  0.005000001227508138  0.9998318625836913  1.0000
