data_image0
_chemical_formula_structural       COFe12Ga10
_chemical_formula_sum              "C1 O1 Fe12 Ga10"
_cell_length_a       6.322698581755126
_cell_length_b       6.32269840062205
_cell_length_c       98.8661880493164
_cell_angle_alpha    89.47672962393406
_cell_angle_beta     89.47672963892516
_cell_angle_gamma    76.5228667640197

_space_group_name_H-M_alt    "P 1"
_space_group_IT_number       1

loop_
  _space_group_symop_operation_xyz
  'x, y, z'

loop_
  _atom_site_type_symbol
  _atom_site_label
  _atom_site_symmetry_multiplicity
  _atom_site_fract_x
  _atom_site_fract_y
  _atom_site_fract_z
  _atom_site_occupancy
  C   C1        1.0  0.00774818285018813  0.007747076901433312  7.952356340167619e-05  1.0000
  O   O1        1.0  0.00774818285018813  0.007747076901433312  0.00020089938410252563  1.0000
  Fe  Fe1       1.0  0.004323561691331887  0.004321513511720857  0.9993934014938767  1.0000
  Fe  Fe2       1.0  0.000860930458465301  0.0008588821273696906  0.9996289049706156  1.0000
  Fe  Fe3       1.0  0.009463949118573426  0.0042621747891919415  0.9997747603133373  1.0000
  Fe  Fe4       1.0  0.0015540587959419335  0.0070958420559284275  0.9997637840526623  1.0000
  Fe  Fe5       1.0  0.003946316277350586  0.007995606273451446  0.9999790981089849  1.0000
  Fe  Fe6       1.0  0.005244452114141963  0.0006037980171177237  0.9995272234968576  1.0000
  Fe  Fe7       1.0  0.007768474013575123  0.007767367647213932  0.9999043198369991  1.0000
  Fe  Fe8       1.0  0.00799542726676424  0.003944144659701103  0.999979502207047  1.0000
  Fe  Fe9       1.0  0.006876555839398987  0.006874507578759867  0.9994126620552084  1.0000
  Fe  Fe10      1.0  0.0070970923909043915  0.0015501656574075122  0.9997636592924212  1.0000
  Fe  Fe11      1.0  0.0006058463407062598  0.005242404304216301  0.9995272234965575  1.0000
  Fe  Fe12      1.0  0.0042638146012326066  0.009460943598917465  0.9997748204948593  1.0000
  Ga  Ga1       1.0  0.00795285737728419  0.007950808979413524  0.9996548362121561  1.0000
  Ga  Ga2       1.0  0.0035035249326749564  0.007431074695324113  0.9995527314381633  1.0000
  Ga  Ga3       1.0  0.005440197331275304  0.005435463579576978  0.9998137555875894  1.0000
  Ga  Ga4       1.0  0.005478132692100366  0.001286532133910425  0.9999960490781564  1.0000
  Ga  Ga5       1.0  0.007433122452683394  0.003501476311256834  0.999552731438668  1.0000
  Ga  Ga6       1.0  0.001877538773084745  0.001875490433911573  0.9993883449768167  1.0000
  Ga  Ga7       1.0  0.00053605081917118  0.0005390565858798542  0.9999008358412752  1.0000
  Ga  Ga8       1.0  0.0012893544938887749  0.005472015277767653  0.9999959895086787  1.0000
  Ga  Ga9       1.0  0.003285319167987179  0.0032832709677316782  0.9996960275362845  1.0000
  Ga  Ga10      1.0  0.009322578834366059  0.009320530959515577  0.9994177182706057  1.0000
