data_image0
_chemical_formula_structural       HNi3Pt3Ni3Pt3Ni3Pt3Ni3Pt3
_chemical_formula_sum              "H1 Ni12 Pt12"
_cell_length_a       6.105352116183651
_cell_length_b       7.286516189575195
_cell_length_c       100.89090728759766
_cell_angle_alpha    90.0
_cell_angle_beta     108.43494846915118
_cell_angle_gamma    90.0

_space_group_name_H-M_alt    "P 1"
_space_group_IT_number       1

loop_
  _space_group_symop_operation_xyz
  'x, y, z'

loop_
  _atom_site_type_symbol
  _atom_site_label
  _atom_site_symmetry_multiplicity
  _atom_site_fract_x
  _atom_site_fract_y
  _atom_site_fract_z
  _atom_site_occupancy
  H   H1        1.0  0.00991726730496921  0.005416666912070547  0.0001897801125096242  1.0000
  Ni  Ni1       1.0  8.273244881593043e-05  0.003750000071576132  0.00014342667745760268  1.0000
  Ni  Ni2       1.0  0.006749399147306287  0.003750000071576132  0.999888275783425  1.0000
  Ni  Ni3       1.0  0.003416065599581783  0.003750000071576132  1.5851522034678358e-05  1.0000
  Pt  Pt1       1.0  8.273244881593043e-05  0.0012500000664635508  0.9999520637546053  1.0000
  Pt  Pt2       1.0  0.006749399147306287  0.0012500000664635508  7.963929706039398e-05  1.0000
  Pt  Pt3       1.0  0.003416065599581783  0.0012500000664635508  0.9998244880083993  1.0000
  Ni  Ni4       1.0  8.273244881593043e-05  0.003750000071576132  0.9997607002409699  1.0000
  Ni  Ni5       1.0  0.006749399147306287  0.003750000071576132  0.9995055490515456  1.0000
  Ni  Ni6       1.0  0.003416065599581783  0.003750000071576132  0.9996331247901554  1.0000
  Pt  Pt4       1.0  8.273244881593043e-05  0.0012500000664635508  0.999569337022726  1.0000
  Pt  Pt5       1.0  0.006749399147306287  0.0012500000664635508  0.9996969125651811  1.0000
  Pt  Pt6       1.0  0.003416065599581783  0.0012500000664635508  0.99944176127652  1.0000
  Ni  Ni7       1.0  8.273244881593043e-05  0.008750000081801294  0.00014342667745760268  1.0000
  Ni  Ni8       1.0  0.006749399147306287  0.008750000081801294  0.999888275783425  1.0000
  Ni  Ni9       1.0  0.003416065599581783  0.008750000081801294  1.5851522034678358e-05  1.0000
  Pt  Pt7       1.0  8.273244881593043e-05  0.006250000204503234  0.9999520637546053  1.0000
  Pt  Pt8       1.0  0.006749399147306287  0.006250000204503234  7.963929706039398e-05  1.0000
  Pt  Pt9       1.0  0.003416065599581783  0.006250000204503234  0.9998244880083993  1.0000
  Ni  Ni10      1.0  8.273244881593043e-05  0.008750000081801294  0.9997607002409699  1.0000
  Ni  Ni11      1.0  0.006749399147306287  0.008750000081801294  0.9995055490515456  1.0000
  Ni  Ni12      1.0  0.003416065599581783  0.008750000081801294  0.9996331247901554  1.0000
  Pt  Pt10      1.0  8.273244881593043e-05  0.006250000204503234  0.999569337022726  1.0000
  Pt  Pt11      1.0  0.006749399147306287  0.006250000204503234  0.9996969125651811  1.0000
  Pt  Pt12      1.0  0.003416065599581783  0.006250000204503234  0.99944176127652  1.0000
