data_image0
_chemical_formula_structural       HNi6Sb12
_chemical_formula_sum              "H1 Ni6 Sb12"
_cell_length_a       7.53988141146415
_cell_length_b       6.557482032644334
_cell_length_c       106.72752380371094
_cell_angle_alpha    101.41234615962611
_cell_angle_beta     111.8472555735471
_cell_angle_gamma    71.67700816387674

_space_group_name_H-M_alt    "P 1"
_space_group_IT_number       1

loop_
  _space_group_symop_operation_xyz
  'x, y, z'

loop_
  _atom_site_type_symbol
  _atom_site_label
  _atom_site_symmetry_multiplicity
  _atom_site_fract_x
  _atom_site_fract_y
  _atom_site_fract_z
  _atom_site_occupancy
  H   H1        1.0  0.005115753728275118  0.006449828598485947  0.00025753229997428254  1.0000
  Ni  Ni1       1.0  0.00759430132672212  0.00952667690827754  0.9999854091962185  1.0000
  Ni  Ni2       1.0  0.0009276344282228129  0.0028600103972637055  0.9994118692673443  1.0000
  Ni  Ni3       1.0  0.004260967739476847  0.006193343547636018  0.9996986392268754  1.0000
  Ni  Ni4       1.0  0.00759430132672212  0.00952667690827754  0.999555254224791  1.0000
  Ni  Ni5       1.0  0.0009276344282228129  0.0028600103972637055  0.9998420245180093  1.0000
  Ni  Ni6       1.0  0.004260967739476847  0.006193343547636018  0.0001287944775403533  1.0000
  Sb  Sb1       1.0  0.009241956325874628  0.00981139779206117  0.9998191652333319  1.0000
  Sb  Sb2       1.0  0.002575289427375321  0.003144731281047335  0.00010593524731274004  1.0000
  Sb  Sb3       1.0  0.005908623014620595  0.0064780643519106885  0.9995323949910404  1.0000
  Sb  Sb4       1.0  0.009279979086841169  0.0025752895772978047  0.9995781133560436  1.0000
  Sb  Sb5       1.0  0.002613312740324339  0.0059086226638523885  0.9998648837482369  1.0000
  Sb  Sb6       1.0  0.005946646327569612  0.009241956024493911  0.00015165371758002157  1.0000
  Sb  Sb7       1.0  0.004468581596769965  0.00219808504342206  0.9995943389620644  1.0000
  Sb  Sb8       1.0  0.0078019151840152375  0.005531418693841752  0.999881109214168  1.0000
  Sb  Sb9       1.0  0.0011352483545137401  0.008864751919537015  0.00016787959535524862  1.0000
  Sb  Sb10      1.0  0.0007200205709296954  0.006855268901477664  0.9995161692529178  1.0000
  Sb  Sb11      1.0  0.00405335388218373  0.00018860215037455356  0.9998029394035282  1.0000
  Sb  Sb12      1.0  0.007386687469429003  0.0035219356559051604  8.970993310763385e-05  1.0000
