data_image0
_chemical_formula_structural       HRe24
_chemical_formula_sum              "H1 Re24"
_cell_length_a       5.564642542645726
_cell_length_b       8.998384475708008
_cell_length_c       103.38785552978516
_cell_angle_alpha    90.0
_cell_angle_beta     119.99999932650972
_cell_angle_gamma    90.0

_space_group_name_H-M_alt    "P 1"
_space_group_IT_number       1

loop_
  _space_group_symop_operation_xyz
  'x, y, z'

loop_
  _atom_site_type_symbol
  _atom_site_label
  _atom_site_symmetry_multiplicity
  _atom_site_fract_x
  _atom_site_fract_y
  _atom_site_fract_z
  _atom_site_occupancy
  H   H1        1.0  0.0034290252445447855  0.003749987000542632  0.00018900324459465674  1.0000
  Re  Re1       1.0  0.0033680353040801444  0.0012499960463433803  0.9994234565397825  1.0000
  Re  Re2       1.0  0.0017013687250227107  0.003749996108442699  0.9995131614964533  1.0000
  Re  Re3       1.0  0.0033680353040801444  0.0012499960463433803  0.999692571414252  1.0000
  Re  Re4       1.0  0.0017434288870126359  0.003750003974356393  0.9997866384858285  1.0000
  Re  Re5       1.0  0.0033585611385710742  0.0012500028772684303  0.99996072451748  1.0000
  Re  Re6       1.0  0.0016319646263478174  0.003749987000542632  4.3918599319240586e-05  1.0000
  Re  Re7       1.0  0.0033680353040801444  0.006249996274040882  0.9994234565397825  1.0000
  Re  Re8       1.0  0.0017013687250227107  0.008749996025643608  0.9995131614964533  1.0000
  Re  Re9       1.0  0.0033680353040801444  0.006249996274040882  0.999692571414252  1.0000
  Re  Re10      1.0  0.0017434288870126359  0.008750004305552759  0.9997866384858285  1.0000
  Re  Re11      1.0  0.0033585611385710742  0.006250002897968203  0.99996072451748  1.0000
  Re  Re12      1.0  0.0016319646263478174  0.00874998691774354  4.3918599319240586e-05  1.0000
  Re  Re13      1.0  0.008368035041252445  0.0012499960463433803  0.9994234562559823  1.0000
  Re  Re14      1.0  0.006701368848706334  0.003749996108442699  0.9995131615113121  1.0000
  Re  Re15      1.0  0.008368035041252445  0.0012499960463433803  0.9996925714187093  1.0000
  Re  Re16      1.0  0.0067434290106962586  0.003750003974356393  0.9997866382124299  1.0000
  Re  Re17      1.0  0.008358561648766019  0.0012500028772684303  0.9999607245427404  1.0000
  Re  Re18      1.0  0.00663196455677578  0.003749987000542632  4.3918608977252484e-05  1.0000
  Re  Re19      1.0  0.008368035041252445  0.006249996274040882  0.9994234562559823  1.0000
  Re  Re20      1.0  0.006701368848706334  0.008749996025643608  0.9995131615113121  1.0000
  Re  Re21      1.0  0.008368035041252445  0.006249996274040882  0.9996925714187093  1.0000
  Re  Re22      1.0  0.0067434290106962586  0.008750004305552759  0.9997866382124299  1.0000
  Re  Re23      1.0  0.008358561648766019  0.006250002897968203  0.9999607245427404  1.0000
  Re  Re24      1.0  0.00663196455677578  0.00874998691774354  4.3918608977252484e-05  1.0000
