data_image0
_chemical_formula_structural       HRe3V9Re3V9Re3V9Re3V9
_chemical_formula_sum              "H1 Re12 V36"
_cell_length_a       8.529214859008789
_cell_length_b       8.529215123704917
_cell_length_c       101.33834075927734
_cell_angle_alpha    90.0
_cell_angle_beta     90.0
_cell_angle_gamma    119.99999897340174

_space_group_name_H-M_alt    "P 1"
_space_group_IT_number       1

loop_
  _space_group_symop_operation_xyz
  'x, y, z'

loop_
  _atom_site_type_symbol
  _atom_site_label
  _atom_site_symmetry_multiplicity
  _atom_site_fract_x
  _atom_site_fract_y
  _atom_site_fract_z
  _atom_site_occupancy
  H   H1        1.0  0.004166665887247891  0.0016666365140672933  8.469538744580417e-05  1.0000
  Re  Re1       1.0  0.0024999489437349098  0.0033333469134346795  0.9992509036856737  1.0000
  Re  Re2       1.0  0.0008333105805613842  0.009999986524128203  0.9999262352505557  1.0000
  Re  Re3       1.0  0.00416661569608219  0.0016666802652603517  0.9995945088558965  1.0000
  V   V1        1.0  0.002500020887315634  0.0033332863930523506  0.0  1.0000
  V   V2        1.0  0.0008332822324215116  1.3599999946733988e-08  0.9996804100014086  1.0000
  V   V3        1.0  0.00416661569608219  0.0016666802652603517  0.9993368051252731  1.0000
  V   V4        1.0  0.004166718014135641  0.0016666599657154456  0.9998557019327288  1.0000
  V   V5        1.0  0.0024999489437349098  0.0033333469134346795  0.9995086077103845  1.0000
  V   V6        1.0  0.0008332822324215116  1.3599999946733988e-08  0.9991650025401617  1.0000
  V   V7        1.0  0.0008332822324215116  1.3599999946733988e-08  0.9994227062707851  1.0000
  V   V8        1.0  0.00416661569608219  0.0016666802652603517  0.9990791011005623  1.0000
  V   V9        1.0  0.0024999900575357554  0.003333332287675617  0.999767008722075  1.0000
  Re  Re4       1.0  0.0024999489026040216  0.008333346984041793  0.9992509036856737  1.0000
  Re  Re5       1.0  0.0008333103318200461  0.00499998620135283  0.9999262352505557  1.0000
  Re  Re6       1.0  0.004166615482717173  0.006666680209783335  0.9995945088558965  1.0000
  V   V10       1.0  0.0025000207369926825  0.008333286463659464  0.0  1.0000
  V   V11       1.0  0.0008332820191535  0.005000013435524878  0.9996804100014086  1.0000
  V   V12       1.0  0.004166615482717173  0.006666680209783335  0.9993368051252731  1.0000
  V   V13       1.0  0.004166717918408721  0.006666660036322559  0.9998557019327288  1.0000
  V   V14       1.0  0.0024999489026040216  0.008333346984041793  0.9995086077103845  1.0000
  V   V15       1.0  0.0008332820191535  0.005000013435524878  0.9991650025401617  1.0000
  V   V16       1.0  0.0008332820191535  0.005000013435524878  0.9994227062707851  1.0000
  V   V17       1.0  0.004166615482717173  0.006666680209783335  0.9990791011005623  1.0000
  V   V18       1.0  0.0024999900710008993  0.00833333235828273  0.999767008722075  1.0000
  Re  Re7       1.0  0.00749994936958396  0.0033333469134346795  0.9992509036856737  1.0000
  Re  Re8       1.0  0.005833310624238209  0.009999986524128203  0.9999262352505557  1.0000
  Re  Re9       1.0  0.009166615521374887  0.0016666802652603517  0.9995945088558965  1.0000
  V   V19       1.0  0.007500021313164683  0.0033332863930523506  0.0  1.0000
  V   V20       1.0  0.005833282276098336  1.3599999946733988e-08  0.9996804100014086  1.0000
  V   V21       1.0  0.009166615521374887  0.0016666802652603517  0.9993368051252731  1.0000
  V   V22       1.0  0.009166718057812466  0.0016666599657154456  0.9998557019327288  1.0000
  V   V23       1.0  0.00749994936958396  0.0033333469134346795  0.9995086077103845  1.0000
  V   V24       1.0  0.005833282276098336  1.3599999946733988e-08  0.9991650025401617  1.0000
  V   V25       1.0  0.005833282276098336  1.3599999946733988e-08  0.9994227062707851  1.0000
  V   V26       1.0  0.009166615521374887  0.0016666802652603517  0.9990791011005623  1.0000
  V   V27       1.0  0.007499990101212581  0.003333332287675617  0.999767008722075  1.0000
  Re  Re10      1.0  0.00749994905547291  0.008333346984041793  0.9992509036856737  1.0000
  Re  Re11      1.0  0.0058333105938809995  0.00499998620135283  0.9999262352505557  1.0000
  Re  Re12      1.0  0.00916661558099003  0.006666680209783335  0.9995945088558965  1.0000
  V   V28       1.0  0.0075000209990536346  0.008333286463659464  0.0  1.0000
  V   V29       1.0  0.005833282281214454  0.005000013435524878  0.9996804100014086  1.0000
  V   V30       1.0  0.00916661558099003  0.006666680209783335  0.9993368051252731  1.0000
  V   V31       1.0  0.009166718180469673  0.006666660036322559  0.9998557019327288  1.0000
  V   V32       1.0  0.00749994905547291  0.008333346984041793  0.9995086077103845  1.0000
  V   V33       1.0  0.005833282281214454  0.005000013435524878  0.9991650025401617  1.0000
  V   V34       1.0  0.005833282281214454  0.005000013435524878  0.9994227062707851  1.0000
  V   V35       1.0  0.00916661558099003  0.006666680209783335  0.9990791011005623  1.0000
  V   V36       1.0  0.007499990223869789  0.00833333235828273  0.999767008722075  1.0000
