data_image0
_chemical_formula_structural       HAl4Pt8Al4Pt8
_chemical_formula_sum              "H1 Al8 Pt16"
_cell_length_a       5.495246410369873
_cell_length_b       9.019367551048198
_cell_length_c       103.07796478271484
_cell_angle_alpha    117.28581924531062
_cell_angle_beta     90.0
_cell_angle_gamma    90.0

_space_group_name_H-M_alt    "P 1"
_space_group_IT_number       1

loop_
  _space_group_symop_operation_xyz
  'x, y, z'

loop_
  _atom_site_type_symbol
  _atom_site_label
  _atom_site_symmetry_multiplicity
  _atom_site_fract_x
  _atom_site_fract_y
  _atom_site_fract_z
  _atom_site_occupancy
  H   H1        1.0  0.00746405556374593  0.009140338829200715  0.00033766561727131123  1.0000
  Al  Al1       1.0  0.0030542909238529107  0.0060675022596227745  0.999830950401994  1.0000
  Al  Al2       1.0  0.00687382181706813  0.003996443808235032  0.9995473105288403  1.0000
  Al  Al3       1.0  0.00805429134415799  0.008996443845414556  0.9995473105650265  1.0000
  Al  Al4       1.0  0.001873821566240905  0.001067501990071223  0.9998309503564867  1.0000
  Pt  Pt1       1.0  0.009529271352821373  0.002127544605688241  0.9996729076940215  1.0000
  Pt  Pt2       1.0  0.0003988413880996674  0.007936400765053484  0.9997053532088496  1.0000
  Pt  Pt3       1.0  0.004529271271472003  0.0029364011926180144  0.9997053531913055  1.0000
  Pt  Pt4       1.0  0.0053988414694490375  0.0071275448752397925  0.9996729077395289  1.0000
  Pt  Pt5       1.0  0.008354791173129074  0.005719485645223579  0.9998169904833882  1.0000
  Pt  Pt6       1.0  0.0015733213983141112  0.004344460422634228  0.999561270447446  1.0000
  Pt  Pt7       1.0  0.0033547914307354145  0.009344460924557808  0.9995612705022745  1.0000
  Pt  Pt8       1.0  0.006573321310185626  0.0007194853756720273  0.999816990437881  1.0000
  Al  Al5       1.0  0.003080064777093614  0.005882735359922781  0.00021330677713738777  1.0000
  Al  Al6       1.0  0.006788819181999323  0.0039591699407947305  0.9999429663342052  1.0000
  Al  Al7       1.0  0.008139296012961058  0.00895916765425398  0.9999429659880564  1.0000
  Al  Al8       1.0  0.0018480470350887817  0.0008827355551152839  0.00021330703939630033  1.0000
  Pt  Pt9       1.0  0.009714613690929835  0.002334105213101731  8.67422795481596e-05  1.0000
  Pt  Pt10      1.0  0.00028538670480095566  0.007938994036880184  0.00011789158486842518  1.0000
  Pt  Pt11      1.0  0.004642726865714186  0.00293899492918877  0.00011789129684243857  1.0000
  Pt  Pt12      1.0  0.005213497097606315  0.007334103623677063  8.674225048678636e-05  1.0000
  Pt  Pt13      1.0  0.008103057580082272  0.005649763812609724  0.00019710187948465918  1.0000
  Pt  Pt14      1.0  0.001590963704069386  0.004350234867517159  0.9999568289570153  1.0000
  Pt  Pt15      1.0  0.0033371481081130093  0.009350233975208573  0.9999568289559172  1.0000
  Pt  Pt16      1.0  0.006825053547409588  0.0006497658667784472  0.00019710163806412845  1.0000
