data_image0
_chemical_formula_structural       HAl36Mn6
_chemical_formula_sum              "H1 Al36 Mn6"
_cell_length_a       10.178387011527214
_cell_length_b       4.992786061200076
_cell_length_c       108.82781219482422
_cell_angle_alpha    90.53606234781296
_cell_angle_beta     91.93318799638683
_cell_angle_gamma    85.6887755358343

_space_group_name_H-M_alt    "P 1"
_space_group_IT_number       1

loop_
  _space_group_symop_operation_xyz
  'x, y, z'

loop_
  _atom_site_type_symbol
  _atom_site_label
  _atom_site_symmetry_multiplicity
  _atom_site_fract_x
  _atom_site_fract_y
  _atom_site_fract_z
  _atom_site_occupancy
  H   H1        1.0  0.00896276012473521  0.005444809816108272  0.9999883203598613  1.0000
  Al  Al1       1.0  0.004086407012155568  0.009699716853559285  0.9998465270435275  1.0000
  Al  Al2       1.0  0.0063615017554197835  0.0008531912317330623  0.9994564124174445  1.0000
  Al  Al3       1.0  0.00858372419635393  0.0019643023932006363  0.9990599878925037  1.0000
  Al  Al4       1.0  0.00038942115916663905  0.002443173278574123  0.9996298232395874  1.0000
  Al  Al5       1.0  0.0026116433705756785  0.003554284288530292  0.9992333987138573  1.0000
  Al  Al6       1.0  0.007965028799385753  0.001159122179564516  1.473510743273278e-05  1.0000
  Al  Al7       1.0  0.007649542314153203  0.003018586911700376  0.9996726151320223  1.0000
  Al  Al8       1.0  0.009871764755087352  0.004129697886626141  0.9992761906070015  1.0000
  Al  Al9       1.0  0.0020939869462981812  0.005240809198131879  0.9988797660676447  1.0000
  Al  Al10      1.0  0.002990269458922782  0.009722222927339094  0.9996118325146134  1.0000
  Al  Al11      1.0  0.005212491716236843  0.0008333333258937259  0.9992154079952696  1.0000
  Al  Al12      1.0  0.0009490987190180912  0.008700960666006565  6.729174343411963e-06  1.0000
  Al  Al13      1.0  0.009101380804251515  0.00027777764211653474  0.9994136205393638  1.0000
  Al  Al14      1.0  0.0013236029036523015  0.001388888967634433  0.9990171957258749  1.0000
  Al  Al15      1.0  0.006827896776390431  0.009111395349751708  0.9998086283778322  1.0000
  Al  Al16      1.0  0.0015465506490714477  0.002728508154983126  0.9998803744699305  1.0000
  Al  Al17      1.0  0.003760653593378705  0.003574142539428922  0.9994744031367596  1.0000
  Al  Al18      1.0  0.0059828756670726796  0.0046852535704033325  0.9990779783367557  1.0000
  Al  Al19      1.0  0.0010671320061904118  0.008894185478225661  0.9992420931586233  1.0000
  Al  Al20      1.0  0.005454379598199529  0.0009260671345977616  6.495753661943364e-05  1.0000
  Al  Al21      1.0  0.008844909814979582  0.007783074912887155  0.9996385176983004  1.0000
  Al  Al22      1.0  0.003357035342230707  0.004734572620459901  0.9997255502413611  1.0000
  Al  Al23      1.0  0.005579257415924681  0.005845684024517928  0.9993291257153657  1.0000
  Al  Al24      1.0  0.007801479856858829  0.006956794999443693  0.9989327011903448  1.0000
  Al  Al25      1.0  0.0033938878936908678  0.008561791699032945  0.9993606854100988  1.0000
  Al  Al26      1.0  0.005616109967384842  0.009672903476174588  0.9989642608842636  1.0000
  Al  Al27      1.0  0.0011716655445667633  0.007450680710095018  0.9997571099354033  1.0000
  Al  Al28      1.0  0.005740494948796496  0.0043547638741367805  0.9998550304251435  1.0000
  Al  Al29      1.0  0.007906013303425137  0.005513290245325213  0.9994477179668412  1.0000
  Al  Al30      1.0  0.00012823544873094488  0.00662440156383703  0.9990512931534943  1.0000
  Al  Al31      1.0  0.008906198527617213  0.005421001949771932  0.9998750153170499  1.0000
  Al  Al32      1.0  0.0012003478284459796  0.006497806739235425  0.9994851606514157  1.0000
  Al  Al33      1.0  0.0034225700857600408  0.0076089184883527455  0.9990887361261478  1.0000
  Al  Al34      1.0  0.005550575223855508  0.00679855798136536  0.9996010744519402  1.0000
  Al  Al35      1.0  0.007772797664789656  0.007909668956291126  0.9992046499269194  1.0000
  Al  Al36      1.0  0.0034841272509648605  0.005819496857807044  1.293572486265186e-05  1.0000
  Mn  Mn1       1.0  0.005224036278346476  0.0017538833257715043  0.9996593260781469  1.0000
  Mn  Mn2       1.0  0.007446258719280624  0.002864994487239078  0.9992629015532061  1.0000
  Mn  Mn3       1.0  0.0030832115202572737  0.0008592271810448866  4.242269454231804e-05  1.0000
  Mn  Mn4       1.0  0.001526886773955012  0.001542481163517439  0.9994269095793106  1.0000
  Mn  Mn5       1.0  0.003749109031269073  0.002653592166467528  0.9990304847798739  1.0000
  Mn  Mn6       1.0  0.009325663926753342  0.00040255943169955347  0.9998323444924683  1.0000
