data_image0
_chemical_formula_structural       COCaCu5CaCu5
_chemical_formula_sum              "C1 O1 Ca2 Cu10"
_cell_length_a       5.1990885734558105
_cell_length_b       5.199088739236082
_cell_length_c       98.6988296508789
_cell_angle_alpha    90.0
_cell_angle_beta     90.0
_cell_angle_gamma    119.99999894520607

_space_group_name_H-M_alt    "P 1"
_space_group_IT_number       1

loop_
  _space_group_symop_operation_xyz
  'x, y, z'

loop_
  _atom_site_type_symbol
  _atom_site_label
  _atom_site_symmetry_multiplicity
  _atom_site_fract_x
  _atom_site_fract_y
  _atom_site_fract_z
  _atom_site_occupancy
  C   C1        1.0  0.0033333323121385794  0.00666666252427716  0.0001752838185812049  1.0000
  O   O1        1.0  0.0033333323121385794  0.00666666252427716  0.0002968660537621284  1.0000
  Ca  Ca1       1.0  2.9999998842749807e-10  1.9999999158223975e-10  0.9995846681590478  1.0000
  Cu  Cu1       1.0  0.003333333480575418  0.006666666661150835  0.9995846681590478  1.0000
  Cu  Cu2       1.0  0.006666666980559839  0.0033333333305754177  0.9995846681590478  1.0000
  Cu  Cu3       1.0  0.005000000415272127  1.9999999158223975e-10  0.999376974006047  1.0000
  Cu  Cu4       1.0  0.00500000020727855  0.005000000099284968  0.999376974006047  1.0000
  Cu  Cu5       1.0  2.5027020365740045e-10  0.005000000099284968  0.999376974006047  1.0000
  Ca  Ca2       1.0  0.009999999642605947  0.009999999371195202  0.0  1.0000
  Cu  Cu6       1.0  0.0033333323121385794  0.00666666252427716  0.9999997952764521  1.0000
  Cu  Cu7       1.0  0.006666667242827106  0.00333333457163752  0.9999997952764521  1.0000
  Cu  Cu8       1.0  0.00500000299874432  6.799999516534643e-09  0.9997925277818188  1.0000
  Cu  Cu9       1.0  0.005000001776903142  0.004999996789786029  0.9997925265740103  1.0000
  Cu  Cu10      1.0  0.009999995133743262  0.004999997203473396  0.999792528083771  1.0000
