data_image0
_chemical_formula_structural       HIn2Si2Pt10In2Si2Pt10In2Si2Pt10In2Si2Pt10
_chemical_formula_sum              "H1 In8 Si8 Pt40"
_cell_length_a       14.902037041304443
_cell_length_b       8.038244247436523
_cell_length_c       102.1529769897461
_cell_angle_alpha    90.0
_cell_angle_beta     74.35341348452408
_cell_angle_gamma    90.0

_space_group_name_H-M_alt    "P 1"
_space_group_IT_number       1

loop_
  _space_group_symop_operation_xyz
  'x, y, z'

loop_
  _atom_site_type_symbol
  _atom_site_label
  _atom_site_symmetry_multiplicity
  _atom_site_fract_x
  _atom_site_fract_y
  _atom_site_fract_z
  _atom_site_occupancy
  H   H1        1.0  0.006902254594773746  0.004999999629243384  0.9997444013651965  1.0000
  In  In1       1.0  0.0007425970741654846  0.003749999721932538  0.9995773415248365  1.0000
  In  In2       1.0  0.005742596985899666  0.003749999721932538  0.9993806207746829  1.0000
  Si  Si1       1.0  0.0032425969651312383  0.001249999907310846  0.9996757016725458  1.0000
  Si  Si2       1.0  0.008242597006668094  0.001249999907310846  0.9994789809172853  1.0000
  Pt  Pt1       1.0  0.00222779109269378  0.003749999721932538  0.9997156283477479  1.0000
  Pt  Pt2       1.0  0.007227791393835983  0.003749999721932538  0.9995189075822735  1.0000
  Pt  Pt3       1.0  0.004257403097174045  0.003749999721932538  0.9996357749871299  1.0000
  Pt  Pt4       1.0  0.0092574031387109  0.003749999721932538  0.9994390542318693  1.0000
  Pt  Pt5       1.0  0.00222779109269378  0.001249999907310846  0.9995189078275153  1.0000
  Pt  Pt6       1.0  0.007227791393835983  0.001249999907310846  0.9997156286859902  1.0000
  Pt  Pt7       1.0  0.004257403097174045  0.001249999907310846  0.9994390544668972  1.0000
  Pt  Pt8       1.0  0.0092574031387109  0.001249999907310846  0.9996357753355861  1.0000
  Pt  Pt9       1.0  0.0007425970741654846  0.001249999907310846  0.9993806210046039  1.0000
  Pt  Pt10      1.0  0.005742596985899666  0.001249999907310846  0.9995773412949156  1.0000
  In  In3       1.0  0.0007425970741654846  0.003749999721932538  0.9991839001926291  1.0000
  In  In4       1.0  0.005742596985899666  0.003749999721932538  0.9989871794424756  1.0000
  Si  Si3       1.0  0.0032425969651312383  0.001249999907310846  0.9992822606320806  1.0000
  Si  Si4       1.0  0.008242597006668094  0.001249999907310846  0.99908553987682  1.0000
  Pt  Pt11      1.0  0.00222779109269378  0.003749999721932538  0.9993221873072826  1.0000
  Pt  Pt12      1.0  0.007227791393835983  0.003749999721932538  0.9991254665418082  1.0000
  Pt  Pt13      1.0  0.004257403097174045  0.003749999721932538  0.9992423339466646  1.0000
  Pt  Pt14      1.0  0.0092574031387109  0.003749999721932538  0.9990456131914041  1.0000
  Pt  Pt15      1.0  0.00222779109269378  0.001249999907310846  0.999125466495308  1.0000
  Pt  Pt16      1.0  0.007227791393835983  0.001249999907310846  0.9993221870620408  1.0000
  Pt  Pt17      1.0  0.004257403097174045  0.001249999907310846  0.9990456131346899  1.0000
  Pt  Pt18      1.0  0.0092574031387109  0.001249999907310846  0.9992423337116367  1.0000
  Pt  Pt19      1.0  0.0007425970741654846  0.001249999907310846  0.9989871793806545  1.0000
  Pt  Pt20      1.0  0.005742596985899666  0.001249999907310846  0.9991839002544504  1.0000
  In  In5       1.0  0.0007425970741654846  0.008749999814621693  0.9995773415248365  1.0000
  In  In6       1.0  0.005742596985899666  0.008749999814621693  0.9993806207746829  1.0000
  Si  Si5       1.0  0.0032425969651312383  0.00624999953655423  0.9996757016725458  1.0000
  Si  Si6       1.0  0.008242597006668094  0.00624999953655423  0.9994789809172853  1.0000
  Pt  Pt21      1.0  0.00222779109269378  0.008749999814621693  0.9997156283477479  1.0000
  Pt  Pt22      1.0  0.007227791393835983  0.008749999814621693  0.9995189075822735  1.0000
  Pt  Pt23      1.0  0.004257403097174045  0.008749999814621693  0.9996357749871299  1.0000
  Pt  Pt24      1.0  0.0092574031387109  0.008749999814621693  0.9994390542318693  1.0000
  Pt  Pt25      1.0  0.00222779109269378  0.00624999953655423  0.9995189078275153  1.0000
  Pt  Pt26      1.0  0.007227791393835983  0.00624999953655423  0.9997156286859902  1.0000
  Pt  Pt27      1.0  0.004257403097174045  0.00624999953655423  0.9994390544668972  1.0000
  Pt  Pt28      1.0  0.0092574031387109  0.00624999953655423  0.9996357753355861  1.0000
  Pt  Pt29      1.0  0.0007425970741654846  0.00624999953655423  0.9993806210046039  1.0000
  Pt  Pt30      1.0  0.005742596985899666  0.00624999953655423  0.9995773412949156  1.0000
  In  In7       1.0  0.0007425970741654846  0.008749999814621693  0.9991839001926291  1.0000
  In  In8       1.0  0.005742596985899666  0.008749999814621693  0.9989871794424756  1.0000
  Si  Si7       1.0  0.0032425969651312383  0.00624999953655423  0.9992822606320806  1.0000
  Si  Si8       1.0  0.008242597006668094  0.00624999953655423  0.99908553987682  1.0000
  Pt  Pt31      1.0  0.00222779109269378  0.008749999814621693  0.9993221873072826  1.0000
  Pt  Pt32      1.0  0.007227791393835983  0.008749999814621693  0.9991254665418082  1.0000
  Pt  Pt33      1.0  0.004257403097174045  0.008749999814621693  0.9992423339466646  1.0000
  Pt  Pt34      1.0  0.0092574031387109  0.008749999814621693  0.9990456131914041  1.0000
  Pt  Pt35      1.0  0.00222779109269378  0.00624999953655423  0.999125466495308  1.0000
  Pt  Pt36      1.0  0.007227791393835983  0.00624999953655423  0.9993221870620408  1.0000
  Pt  Pt37      1.0  0.004257403097174045  0.00624999953655423  0.9990456131346899  1.0000
  Pt  Pt38      1.0  0.0092574031387109  0.00624999953655423  0.9992423337116367  1.0000
  Pt  Pt39      1.0  0.0007425970741654846  0.00624999953655423  0.9989871793806545  1.0000
  Pt  Pt40      1.0  0.005742596985899666  0.00624999953655423  0.9991839002544504  1.0000
