data_image0
_chemical_formula_structural       HPd24Sb12
_chemical_formula_sum              "H1 Pd24 Sb12"
_cell_length_a       7.8966012146830336
_cell_length_b       9.110723728943704
_cell_length_c       101.06462097167969
_cell_angle_alpha    83.02984748701198
_cell_angle_beta     87.86349604294936
_cell_angle_gamma    85.15012378015386

_space_group_name_H-M_alt    "P 1"
_space_group_IT_number       1

loop_
  _space_group_symop_operation_xyz
  'x, y, z'

loop_
  _atom_site_type_symbol
  _atom_site_label
  _atom_site_symmetry_multiplicity
  _atom_site_fract_x
  _atom_site_fract_y
  _atom_site_fract_z
  _atom_site_occupancy
  H   H1        1.0  0.006548643106758984  0.007400527943164114  6.595187911824054e-06  1.0000
  Pd  Pd1       1.0  0.008877497554765058  0.0034498461846452118  0.9997664459118643  1.0000
  Pd  Pd2       1.0  0.002739129620803616  0.004503770042531693  0.9999427517994192  1.0000
  Pd  Pd3       1.0  0.009334965974031828  0.00725103221352603  0.9998728649595872  1.0000
  Pd  Pd4       1.0  0.004057110460578573  0.00022198146871718537  0.9998819924023732  1.0000
  Pd  Pd5       1.0  0.007777306202303793  0.0005239520982831267  0.9998617537197955  1.0000
  Pd  Pd6       1.0  0.0031391305479186206  0.007367216574400046  0.9998236336513456  1.0000
  Pd  Pd7       1.0  0.006434335422196104  0.005412871358818846  0.9998951849076765  1.0000
  Pd  Pd8       1.0  0.0009580977085399964  0.001896071190993226  0.9999634489721602  1.0000
  Pd  Pd9       1.0  0.0009096090172547441  0.004400934282185092  0.9994690380521919  1.0000
  Pd  Pd10      1.0  0.004755949666715629  0.005360699445342277  0.9996463402961459  1.0000
  Pd  Pd11      1.0  0.0013083235192676425  0.008351966297335684  0.9995663417643513  1.0000
  Pd  Pd12      1.0  0.006008183437754983  0.0012032985991718486  0.9996124692658623  1.0000
  Pd  Pd13      1.0  0.009776805794508868  0.001454233092130843  0.9995671456946236  1.0000
  Pd  Pd14      1.0  0.005097642319304292  0.008406288931179593  0.9995178374197655  1.0000
  Pd  Pd15      1.0  0.008244369434018638  0.006459795250098526  0.9996069134427537  1.0000
  Pd  Pd16      1.0  0.0025921940974001916  0.0026554626974827477  0.9997071443293769  1.0000
  Pd  Pd17      1.0  0.0029096089324560244  0.005400934116872228  0.9991616641012312  1.0000
  Pd  Pd18      1.0  0.006755949817960344  0.006360699280029412  0.9993389666393814  1.0000
  Pd  Pd19      1.0  0.003308323594093874  0.009351966958587143  0.9992589678038833  1.0000
  Pd  Pd20      1.0  0.008008183088255896  0.002203298743820605  0.9993050953122818  1.0000
  Pd  Pd21      1.0  0.0017768059644159122  0.002454233133459059  0.9992597715460371  1.0000
  Pd  Pd22      1.0  0.007097642394130524  0.00940628959243105  0.9992104634592976  1.0000
  Pd  Pd23      1.0  0.00024436950500858663  0.007459795084785662  0.9992995395915997  1.0000
  Pd  Pd24      1.0  0.004592194248644907  0.003655462532169883  0.9993997703777286  1.0000
  Sb  Sb1       1.0  0.009387616021925288  0.004478513129808951  1.3291846712494565e-05  1.0000
  Sb  Sb2       1.0  0.005397040431303596  0.0028160711711556824  0.9998545683669791  1.0000
  Sb  Sb3       1.0  0.006236477358281877  0.008246728954349844  0.9997792536759694  1.0000
  Sb  Sb4       1.0  0.0009587741837020967  0.00977801871209376  0.9998036015022439  1.0000
  Sb  Sb5       1.0  0.0012719479544826598  0.005518346752329589  0.9997117014988088  1.0000
  Sb  Sb6       1.0  0.007499665772984216  0.0038550302886230362  0.9995230171711685  1.0000
  Sb  Sb7       1.0  0.008223193984891405  0.009314150814265044  0.9994596196318187  1.0000
  Sb  Sb8       1.0  0.0030460496017337816  0.0009970221367150613  0.9994868447757075  1.0000
  Sb  Sb9       1.0  0.003271947987705658  0.006518346587016724  0.9994043275475044  1.0000
  Sb  Sb10      1.0  0.00949966545214206  0.004855030123310172  0.9992156432208954  1.0000
  Sb  Sb11      1.0  0.00022319401465668097  0.0003141505714617757  0.9991522461236978  1.0000
  Sb  Sb12      1.0  0.005046049497830441  0.0019970221780432774  0.9991794708225419  1.0000
