data_image0
_chemical_formula_structural       HTi20Sb8Rh4Ti20Sb8Rh4
_chemical_formula_sum              "H1 Ti40 Sb16 Rh8"
_cell_length_a       10.53652286529541
_cell_length_b       10.53652286529541
_cell_length_c       101.54349517822266
_cell_angle_alpha    90.0
_cell_angle_beta     90.0
_cell_angle_gamma    90.0

_space_group_name_H-M_alt    "P 1"
_space_group_IT_number       1

loop_
  _space_group_symop_operation_xyz
  'x, y, z'

loop_
  _atom_site_type_symbol
  _atom_site_label
  _atom_site_symmetry_multiplicity
  _atom_site_fract_x
  _atom_site_fract_y
  _atom_site_fract_z
  _atom_site_occupancy
  H   H1        1.0  0.009550309769245981  0.009074411286260521  4.6019729202632495e-05  1.0000
  Ti  Ti1       1.0  0.005733413508425923  0.0028921158553611424  0.9992111986555063  1.0000
  Ti  Ti2       1.0  0.007892088419125217  0.009266615554184812  0.9994700655021346  1.0000
  Ti  Ti3       1.0  0.0021079129244017994  0.0007334405469071385  0.9994700655021346  1.0000
  Ti  Ti4       1.0  0.004266588188660835  0.007107940289925776  0.9992111986555063  1.0000
  Ti  Ti5       1.0  0.007892088419125217  0.0007334405469071385  0.9992111986555063  1.0000
  Ti  Ti6       1.0  0.0021079129244017994  0.009266615554184812  0.9992111986555063  1.0000
  Ti  Ti7       1.0  0.004266588188660835  0.0028921158553611424  0.9994700655021346  1.0000
  Ti  Ti8       1.0  0.005733413508425923  0.007107940289925776  0.9994700655021346  1.0000
  Ti  Ti9       1.0  0.005000000848543379  2.7849999440903275e-08  0.9993406320788205  1.0000
  Ti  Ti10      1.0  0.005000000848543379  2.7849999440903275e-08  0.9990817652321923  1.0000
  Ti  Ti11      1.0  0.0007334134553919614  0.007892115996785038  0.9994700655021346  1.0000
  Ti  Ti12      1.0  0.002892088631261062  0.004266615059201174  0.9992111986555063  1.0000
  Ti  Ti13      1.0  0.007107912712265955  0.005733440732526003  0.9992111986555063  1.0000
  Ti  Ti14      1.0  0.00926658797652499  0.002107939971722009  0.9994700655021346  1.0000
  Ti  Ti15      1.0  0.002892088631261062  0.005733440732526003  0.9994700655021346  1.0000
  Ti  Ti16      1.0  0.007107912712265955  0.004266615059201174  0.9994700655021346  1.0000
  Ti  Ti17      1.0  0.00926658797652499  0.007892115996785038  0.9992111986555063  1.0000
  Ti  Ti18      1.0  0.0007334134553919614  0.002107939971722009  0.9992111986555063  1.0000
  Ti  Ti19      1.0  7.500000350363806e-10  0.005000028072643459  0.9990817652321923  1.0000
  Ti  Ti20      1.0  7.500000350363806e-10  0.005000028072643459  0.9993406320788205  1.0000
  Sb  Sb1       1.0  0.006633922744764035  0.008366105964286958  0.9992111986555063  1.0000
  Sb  Sb2       1.0  0.003366078598762982  0.008366105964286958  0.9994700655021346  1.0000
  Sb  Sb3       1.0  0.006633922744764035  0.001633950004220089  0.9994700655021346  1.0000
  Sb  Sb4       1.0  0.003366078598762982  0.001633950004220089  0.9992111986555063  1.0000
  Sb  Sb5       1.0  0.0016339229568998795  0.0033661058228630623  0.9994700655021346  1.0000
  Sb  Sb6       1.0  0.00836607909374662  0.0033661058228630623  0.9992111986555063  1.0000
  Sb  Sb7       1.0  0.0016339229568998795  0.006633950322423856  0.9992111986555063  1.0000
  Sb  Sb8       1.0  0.00836607909374662  0.006633950322423856  0.9994700655021346  1.0000
  Rh  Rh1       1.0  0.005000000848543379  0.005000028072643459  0.9993406320788205  1.0000
  Rh  Rh2       1.0  7.500000350363806e-10  2.7849999440903275e-08  0.9993406320788205  1.0000
  Rh  Rh3       1.0  7.500000350363806e-10  2.7849999440903275e-08  0.9990817652321923  1.0000
  Rh  Rh4       1.0  0.005000000848543379  0.005000028072643459  0.9990817652321923  1.0000
  Ti  Ti21      1.0  0.005773626686281973  0.0028413939980942845  0.9997232705720023  1.0000
  Ti  Ti22      1.0  0.007937097988431752  0.009286190742821662  0.999952103088476  1.0000
  Ti  Ti23      1.0  0.0020629129012082804  0.0007137936740327397  0.99995209604464  1.0000
  Ti  Ti24      1.0  0.0042263329371955705  0.00715881612245997  0.9997232576583028  1.0000
  Ti  Ti25      1.0  0.007841367445757712  0.000773701853082973  0.9997232693980296  1.0000
  Ti  Ti26      1.0  0.0021586289479329254  0.009226386819700144  0.9997232699850159  1.0000
  Ti  Ti27      1.0  0.004286279698452573  0.0029373660220716313  0.9999520784350497  1.0000
  Ti  Ti28      1.0  0.005713869079486566  0.007063085579785931  0.9999521054364214  1.0000
  Ti  Ti29      1.0  0.005000002616342086  5.0950000149124865e-08  0.9998701533383012  1.0000
  Ti  Ti30      1.0  0.005000000848543379  2.7849999440903275e-08  0.9995994992189419  1.0000
  Ti  Ti31      1.0  0.0007138398577739471  0.007937071117891412  0.9999521007405306  1.0000
  Ti  Ti32      1.0  0.0028413673043338164  0.00422636263621384  0.9997232729199477  1.0000
  Ti  Ti33      1.0  0.007158758138662397  0.005773715429777039  0.9997232576583028  1.0000
  Ti  Ti34      1.0  0.009286180136029424  0.00206295090888047  0.9999520966316263  1.0000
  Ti  Ti35      1.0  0.0029371107519384123  0.005713785639387618  0.9999520925227219  1.0000
  Ti  Ti36      1.0  0.007062925770782863  0.0042862213610952585  0.9999520936966946  1.0000
  Ti  Ti37      1.0  0.009226381869863767  0.00784137522407202  0.9997232723329613  1.0000
  Ti  Ti38      1.0  0.000773618678153832  0.0021586512221966276  0.9997232693980296  1.0000
  Ti  Ti39      1.0  7.500000350363806e-10  0.005000028072643459  0.9995994992189419  1.0000
  Ti  Ti40      1.0  0.00999999957572831  0.005000059539460435  0.9998701545122739  1.0000
  Sb  Sb9       1.0  0.006604459197282489  0.008395419602438193  0.9997234378631098  1.0000
  Sb  Sb10      1.0  0.003371356892140859  0.008371390268180437  2.9349317093515622e-09  1.0000
  Sb  Sb11      1.0  0.006628571264519708  0.0016287190878475463  0.9999999953041092  1.0000
  Sb  Sb12      1.0  0.0033955523994770257  0.0016044896387762148  0.9997234355151644  1.0000
  Sb  Sb13      1.0  0.001628692394087078  0.0033714304325670494  0.0  1.0000
  Sb  Sb14      1.0  0.008395507992373518  0.0033954466851143766  0.9997234366891371  1.0000
  Sb  Sb15      1.0  0.00160440672901688  0.006604478996628001  0.9997234343411917  1.0000
  Sb  Sb16      1.0  0.008371384611224577  0.006628639855109521  0.9999999964780819  1.0000
  Rh  Rh5       1.0  0.005000064842856554  0.005000209448790746  0.9998698563232122  1.0000
  Rh  Rh6       1.0  0.009999991797414001  0.009999971998068489  0.9998698580841713  1.0000
  Rh  Rh7       1.0  7.500000350363806e-10  2.7849999440903275e-08  0.9995994992189419  1.0000
  Rh  Rh8       1.0  0.005000000848543379  0.005000028072643459  0.9995994992189419  1.0000
