data_image0
_chemical_formula_structural       COCa2Cu4Ge4Ca2Cu4Ge4
_chemical_formula_sum              "C1 O1 Ca4 Cu8 Ge8"
_cell_length_a       8.414189338684082
_cell_length_b       6.0029788218801095
_cell_length_c       101.24141693115234
_cell_angle_alpha    92.31544299775067
_cell_angle_beta     90.0
_cell_angle_gamma    110.51283814781483

_space_group_name_H-M_alt    "P 1"
_space_group_IT_number       1

loop_
  _space_group_symop_operation_xyz
  'x, y, z'

loop_
  _atom_site_type_symbol
  _atom_site_label
  _atom_site_symmetry_multiplicity
  _atom_site_fract_x
  _atom_site_fract_y
  _atom_site_fract_z
  _atom_site_occupancy
  C   C1        1.0  4.6675102236435656e-05  0.0001885930594199365  0.00012432220475660008  1.0000
  O   O1        1.0  4.6675102236435656e-05  0.0001885930594199365  0.0002428510112711859  1.0000
  Ca  Ca1       1.0  0.002673029287205347  0.000690224669554044  0.9995526849845467  1.0000
  Ca  Ca2       1.0  0.002105989073399639  0.008423061963665048  0.9999256452639169  1.0000
  Cu  Cu1       1.0  0.004079279359328678  0.0063152249580473675  0.9994562528121061  1.0000
  Cu  Cu2       1.0  0.0012667793441286544  0.0050652248386708195  0.9996491173199864  1.0000
  Cu  Cu3       1.0  0.0034869924886537502  0.003953754570689252  0.9998607196833383  1.0000
  Cu  Cu4       1.0  0.0008282889400893128  0.0033206218178987485  7.954653340816078e-06  1.0000
  Ge  Ge1       1.0  0.004953324927914186  0.009811407232389402  0.9993128979423931  1.0000
  Ge  Ge2       1.0  0.001017733727956611  0.004069042471480359  0.9994067431731447  1.0000
  Ge  Ge3       1.0  0.004328324868225913  0.007311406993636306  0.9996986269581536  1.0000
  Ge  Ge4       1.0  0.00040917120866171866  0.0016365461885477122  0.9997875416095071  1.0000
  Ca  Ca3       1.0  0.0076730287293541284  0.000690224669554044  0.9995526849845467  1.0000
  Ca  Ca4       1.0  0.007105988737661074  0.008423061963665048  0.9999256452639169  1.0000
  Cu  Cu5       1.0  0.009079278801477459  0.0063152249580473675  0.9994562528121061  1.0000
  Cu  Cu6       1.0  0.006266779161243697  0.0050652248386708195  0.9996491173199864  1.0000
  Cu  Cu7       1.0  0.008486992373541594  0.003953754570689252  0.9998607196833383  1.0000
  Cu  Cu8       1.0  0.005828288530106023  0.0033206218178987485  7.954653340816078e-06  1.0000
  Ge  Ge5       1.0  0.009953324370062968  0.009811407232389402  0.9993128979423931  1.0000
  Ge  Ge6       1.0  0.006017733569446083  0.004069042471480359  0.9994067431731447  1.0000
  Ge  Ge7       1.0  0.009328324310374694  0.007311406993636306  0.9996986269581536  1.0000
  Ge  Ge8       1.0  0.005409171187041169  0.0016365461885477122  0.9997875416095071  1.0000
