data_image0
_chemical_formula_structural       COV2Ir6V2Ir6V2Ir6V2Ir6
_chemical_formula_sum              "C1 O1 V8 Ir24"
_cell_length_a       5.478969772728215
_cell_length_b       8.736486434936523
_cell_length_c       108.35279083251953
_cell_angle_alpha    90.0
_cell_angle_beta     120.0000016789525
_cell_angle_gamma    90.0

_space_group_name_H-M_alt    "P 1"
_space_group_IT_number       1

loop_
  _space_group_symop_operation_xyz
  'x, y, z'

loop_
  _atom_site_type_symbol
  _atom_site_label
  _atom_site_symmetry_multiplicity
  _atom_site_fract_x
  _atom_site_fract_y
  _atom_site_fract_z
  _atom_site_occupancy
  C   C1        1.0  0.001306994655309259  0.003750000767530813  0.00011678341868460056  1.0000
  O   O1        1.0  0.001306994655309259  0.003750000767530813  0.00022753298246135144  1.0000
  V   V1        1.0  0.007034700794647041  0.003749999488312791  0.9991790005321423  1.0000
  V   V2        1.0  0.003701367262419136  0.0012499995096330915  0.9993475537714638  1.0000
  Ir  Ir1       1.0  0.0037180905011922117  0.0012499995096330915  0.9996008070899669  1.0000
  Ir  Ir2       1.0  0.008693005745096918  0.0012499995096330915  0.999346708192227  1.0000
  Ir  Ir3       1.0  0.008693005745096918  0.0012499995096330915  0.9996008069476185  1.0000
  Ir  Ir4       1.0  0.0070179771633188896  0.003749999488312791  0.999431407662894  1.0000
  Ir  Ir5       1.0  0.0020430621156917214  0.003749999488312791  0.9991798461064165  1.0000
  Ir  Ir6       1.0  0.0020430621156917214  0.003749999488312791  0.9994314078102048  1.0000
  V   V3        1.0  0.007034700794647041  0.003749999488312791  0.9996846604412242  1.0000
  V   V4        1.0  0.0037495294520820516  0.0012499991898285861  0.9998580884167826  1.0000
  Ir  Ir7       1.0  0.0036764863366212657  0.0012500008954526153  9.295265205352253e-05  1.0000
  Ir  Ir8       1.0  0.00865386878917574  0.0012500002558436044  0.9998484430035955  1.0000
  Ir  Ir9       1.0  0.008466437872588155  0.001250001002054117  9.287158787916843e-05  1.0000
  Ir  Ir10      1.0  0.006997181165637088  0.003750000767530813  0.9999321685080375  1.0000
  Ir  Ir11      1.0  0.0020430621156917214  0.003749999488312791  0.9996855062905474  1.0000
  Ir  Ir12      1.0  0.001966486985938765  0.0037500003411248058  0.9999322337534431  1.0000
  V   V5        1.0  0.007034700794647041  0.008749999658875194  0.9991790005321423  1.0000
  V   V6        1.0  0.003701367262419136  0.006249999147187985  0.9993475537714638  1.0000
  Ir  Ir13      1.0  0.0037180905011922117  0.006249999147187985  0.9996008070899669  1.0000
  Ir  Ir14      1.0  0.008693005745096918  0.006249999147187985  0.999346708192227  1.0000
  Ir  Ir15      1.0  0.008693005745096918  0.006249999147187985  0.9996008069476185  1.0000
  Ir  Ir16      1.0  0.0070179771633188896  0.008749999658875194  0.999431407662894  1.0000
  Ir  Ir17      1.0  0.0020430621156917214  0.008749999658875194  0.9991798461064165  1.0000
  Ir  Ir18      1.0  0.0020430621156917214  0.008749999658875194  0.9994314078102048  1.0000
  V   V7        1.0  0.007034700794647041  0.008749999658875194  0.9996846604412242  1.0000
  V   V8        1.0  0.0037495294520820516  0.006249999147187985  0.9998580884167826  1.0000
  Ir  Ir19      1.0  0.0036764863366212657  0.006250000852812014  9.295265205352253e-05  1.0000
  Ir  Ir20      1.0  0.00865386878917574  0.0062499999999999995  0.9998484430035955  1.0000
  Ir  Ir21      1.0  0.008466437872588155  0.006250000852812014  9.287158787916843e-05  1.0000
  Ir  Ir22      1.0  0.006997181165637088  0.008750000511687209  0.9999321685080375  1.0000
  Ir  Ir23      1.0  0.0020430621156917214  0.008749999658875194  0.9996855062905474  1.0000
  Ir  Ir24      1.0  0.001966486985938765  0.008750000511687209  0.9999322337534431  1.0000
