data_image0
_chemical_formula_structural       HAl8Fe12Si12
_chemical_formula_sum              "H1 Al8 Fe12 Si12"
_cell_length_a       7.50062006846829
_cell_length_b       7.144765029107176
_cell_length_c       35.8875617980957
_cell_angle_alpha    71.79083297323268
_cell_angle_beta     89.83607605335682
_cell_angle_gamma    111.75197368979214

_space_group_name_H-M_alt    "P 1"
_space_group_IT_number       1

loop_
  _space_group_symop_operation_xyz
  'x, y, z'

loop_
  _atom_site_type_symbol
  _atom_site_label
  _atom_site_symmetry_multiplicity
  _atom_site_fract_x
  _atom_site_fract_y
  _atom_site_fract_z
  _atom_site_occupancy
  H   H1        1.0  0.0070167084660634465  0.005365981809475223  0.9999769485377308  1.0000
  Al  Al1       1.0  0.009619503123619677  0.00956078343582991  0.998813949645018  1.0000
  Al  Al2       1.0  0.009619503380139617  0.004560783543178984  0.9976257790843882  1.0000
  Al  Al3       1.0  0.0032106604322556707  0.009065301262150292  0.9997546171500421  1.0000
  Al  Al4       1.0  0.0028550410908000433  0.0034954054143208585  0.998640237393008  1.0000
  Al  Al5       1.0  0.007402837916173165  0.0015137974249600393  0.9984207118883965  1.0000
  Al  Al6       1.0  0.007354168295577438  0.006302056189921255  0.9996035374835887  1.0000
  Al  Al7       1.0  0.0003804970523382173  0.0003114926452382393  0.9994759434141104  1.0000
  Al  Al8       1.0  0.0006383759197393677  0.005448419337848775  0.9982469996238373  1.0000
  Fe  Fe1       1.0  0.0024556697699614745  0.006970002403474194  0.9987244993299054  1.0000
  Fe  Fe2       1.0  0.0023412925727399237  0.0020438542006446362  0.9998679710522794  1.0000
  Fe  Fe3       1.0  0.007780353341791798  0.0031300535769207545  0.9994903193146052  1.0000
  Fe  Fe4       1.0  0.007802209145350778  0.008039200370204492  0.9983364499390265  1.0000
  Fe  Fe5       1.0  0.0007146730936727929  0.007260653002411413  0.9993566815723453  1.0000
  Fe  Fe6       1.0  0.0006961352073505585  0.0022697689843640205  0.9981535743180491  1.0000
  Fe  Fe7       1.0  0.009561743815143473  0.0027394338549168776  0.9989073749633463  1.0000
  Fe  Fe8       1.0  0.009561744160808622  0.007739434045759675  0.9977192039656421  1.0000
  Fe  Fe9       1.0  0.0043281489912886445  0.006846149602470635  0.9994020862243606  1.0000
  Fe  Fe10      1.0  0.004284571148346357  0.0016655165545344363  0.9982365508894616  1.0000
  Fe  Fe11      1.0  0.005973307734460264  0.0033436862847464614  0.9988243979767992  1.0000
  Fe  Fe12      1.0  0.005973308080125414  0.008343686475589258  0.997636227394313  1.0000
  Si  Si1       1.0  0.006669309921134872  0.000214896948175331  0.9992785360640268  1.0000
  Si  Si2       1.0  0.00665075213464023  0.005224099731545253  0.9980908811401579  1.0000
  Si  Si3       1.0  0.004838162871476338  0.00337426556296297  0.9994306789505022  1.0000
  Si  Si4       1.0  0.004800032271823408  0.008413007139925252  0.9982135420466725  1.0000
  Si  Si5       1.0  0.0036071271415311634  0.009785103042133432  0.9989700681285583  1.0000
  Si  Si6       1.0  0.003607127165238755  0.004785103149482507  0.9977818975680678  1.0000
  Si  Si7       1.0  0.008991208237650702  0.0007821415489665976  0.9976953641772808  1.0000
  Si  Si8       1.0  0.00899120845141742  0.0057821413670695555  0.9988835347422671  1.0000
  Si  Si9       1.0  0.001266670840274797  0.00922706140660913  0.9981774141112219  1.0000
  Si  Si10      1.0  0.0012402877046058462  0.004193901683286911  0.999389691542959  1.0000
  Si  Si11      1.0  0.005457846895702222  0.006596195633753433  0.9988474068068907  1.0000
  Si  Si12      1.0  0.005457846550037073  0.0015961954429106365  0.9976592362651722  1.0000
