data_image0
_chemical_formula_structural       COZn4Cu2Au2Zn4Cu2Au2
_chemical_formula_sum              "C1 O1 Zn8 Cu4 Au4"
_cell_length_a       4.552651882171631
_cell_length_b       5.622642517089844
_cell_length_c       103.2448501586914
_cell_angle_alpha    90.0
_cell_angle_beta     90.0
_cell_angle_gamma    90.0

_space_group_name_H-M_alt    "P 1"
_space_group_IT_number       1

loop_
  _space_group_symop_operation_xyz
  'x, y, z'

loop_
  _atom_site_type_symbol
  _atom_site_label
  _atom_site_symmetry_multiplicity
  _atom_site_fract_x
  _atom_site_fract_y
  _atom_site_fract_z
  _atom_site_occupancy
  C   C1        1.0  0.004999999247193248  5.099999889484143e-09  0.00010882359287549708  1.0000
  O   O1        1.0  0.004999999247193248  5.099999889484143e-09  0.00022505238588793846  1.0000
  Zn  Zn1       1.0  0.005000000474595561  0.0025038179398341317  0.9992466907605604  1.0000
  Zn  Zn2       1.0  0.005000000474595561  0.007496186645022327  0.9992466907605604  1.0000
  Zn  Zn3       1.0  1.50000002535474e-10  0.007503817913332071  0.9995400046935125  1.0000
  Zn  Zn4       1.0  1.50000002535474e-10  0.0024961868371622662  0.9995400046935125  1.0000
  Cu  Cu1       1.0  1.50000002535474e-10  0.00500000229242823  0.9993077765895999  1.0000
  Cu  Cu2       1.0  0.005000000474595561  2.4999998869760074e-09  0.9994789191531297  1.0000
  Au  Au1       1.0  0.005000000474595561  0.00500000229242823  0.9994751934605216  1.0000
  Au  Au2       1.0  1.50000002535474e-10  2.4999998869760074e-09  0.9993115019935512  1.0000
  Zn  Zn5       1.0  0.005000000474595561  0.0025038179398341317  0.9997066906855558  1.0000
  Zn  Zn6       1.0  0.005000000474595561  0.007496186645022327  0.9997066906855558  1.0000
  Zn  Zn7       1.0  0.010000000130922913  0.007521847927615198  0.0  1.0000
  Zn  Zn8       1.0  6.850000436872837e-09  0.0024781584792579183  0.999999998845373  1.0000
  Cu  Cu3       1.0  0.009999995221313663  0.004999995666913114  0.999765169655531  1.0000
  Cu  Cu4       1.0  0.004999999247193248  5.099999889484143e-09  0.9999410620658002  1.0000
  Au  Au3       1.0  0.0050000094755458515  0.005000005273910032  0.9999423714127956  1.0000
  Au  Au4       1.0  1.6650000976446966e-08  0.009999997296789832  0.9997669737601874  1.0000
