data_image0
_chemical_formula_structural       COSi12Rh12
_chemical_formula_sum              "C1 O1 Si12 Rh12"
_cell_length_a       6.702005386352539
_cell_length_b       6.702005618704581
_cell_length_c       102.8329849243164
_cell_angle_alpha    90.0
_cell_angle_beta     90.0
_cell_angle_gamma    60.000001146842315

_space_group_name_H-M_alt    "P 1"
_space_group_IT_number       1

loop_
  _space_group_symop_operation_xyz
  'x, y, z'

loop_
  _atom_site_type_symbol
  _atom_site_label
  _atom_site_symmetry_multiplicity
  _atom_site_fract_x
  _atom_site_fract_y
  _atom_site_fract_z
  _atom_site_occupancy
  C   C1        1.0  0.006664889493173833  0.00881660380259109  0.00011251926675953044  1.0000
  O   O1        1.0  0.006664889493173833  0.00881660380259109  0.00022921299808398917  1.0000
  Si  Si1       1.0  0.006446008157214498  0.009387316208713454  0.9996264144027258  1.0000
  Si  Si2       1.0  0.009779341362180448  0.0027206497987815573  0.9993603435835895  1.0000
  Si  Si3       1.0  0.0030323130803777804  0.006221822717247935  0.9998881716471202  1.0000
  Si  Si4       1.0  0.00960797971981582  0.004387316401264532  0.9996264144027258  1.0000
  Si  Si5       1.0  0.002941313156978574  0.007720649927148942  0.9993603435835895  1.0000
  Si  Si6       1.0  0.0064424776057934955  0.0009665378897901306  0.9998881710674944  1.0000
  Si  Si7       1.0  0.004607980141828218  0.006225344476443866  0.9996264144027258  1.0000
  Si  Si8       1.0  0.007941313339240285  0.009558677681409816  0.9993603435835895  1.0000
  Si  Si9       1.0  0.0011871684011015536  0.0028116805668005384  0.9998881728063717  1.0000
  Si  Si10      1.0  0.00688729987526576  0.006666670902790358  0.0  1.0000
  Si  Si11      1.0  0.000220659180099456  0.009999977150605546  0.9997159891846474  1.0000
  Si  Si12      1.0  0.0035539894507176403  0.003333325502922874  0.9994581525287448  1.0000
  Rh  Rh1       1.0  0.006942779638721486  0.004157441223655418  0.9998187116171836  1.0000
  Rh  Rh2       1.0  0.000584800779530375  0.007317919722323889  0.9995438232415083  1.0000
  Rh  Rh3       1.0  0.003918134282477281  0.000651253272277184  0.9992777530019976  1.0000
  Rh  Rh4       1.0  0.004378071104877258  0.00912048213557321  0.9998187121968094  1.0000
  Rh  Rh5       1.0  0.007538583706175873  0.002317919914874966  0.9995438232415083  1.0000
  Rh  Rh6       1.0  0.0008719165874915197  0.005651253440759376  0.9992777530019976  1.0000
  Rh  Rh7       1.0  0.009341066117152996  0.00672216604865473  0.9998187116171836  1.0000
  Rh  Rh8       1.0  0.002538583387949082  0.00036413727271784353  0.9995438232415083  1.0000
  Rh  Rh9       1.0  0.005871917020863832  0.0036974707183726383  0.9992777530019976  1.0000
  Rh  Rh10      1.0  0.006887322648129707  0.006666658707888823  0.9994398546136354  1.0000
  Rh  Rh11      1.0  0.00022065979897510572  2.2899999735501763e-08  0.9999417064599057  1.0000
  Rh  Rh12      1.0  0.0035539724766003927  0.003333352780992097  0.999693067884839  1.0000
