data_image0
_chemical_formula_structural       HV18Pt6
_chemical_formula_sum              "H1 V18 Pt6"
_cell_length_a       6.816593170166016
_cell_length_b       6.816593471591636
_cell_length_c       103.39434814453125
_cell_angle_alpha    90.0
_cell_angle_beta     90.0
_cell_angle_gamma    60.00000146276572

_space_group_name_H-M_alt    "P 1"
_space_group_IT_number       1

loop_
  _space_group_symop_operation_xyz
  'x, y, z'

loop_
  _atom_site_type_symbol
  _atom_site_label
  _atom_site_symmetry_multiplicity
  _atom_site_fract_x
  _atom_site_fract_y
  _atom_site_fract_z
  _atom_site_occupancy
  H   H1        1.0  0.0021249179415055524  0.0036985078825008434  0.00011914720492847457  1.0000
  V   V1        1.0  0.006666808674358182  0.004583333106156213  0.9997448775988953  1.0000
  V   V2        1.0  1.4202200335302992e-07  0.007916666389005742  0.9994757274520805  1.0000
  V   V3        1.0  0.0034366379388838697  0.0012300726035863049  0.0  1.0000
  V   V4        1.0  9.269044081428519e-05  0.002941844315640739  0.999879118170507  1.0000
  V   V5        1.0  0.003333475484806579  0.006249999747580978  0.9996103026696076  1.0000
  V   V6        1.0  0.006666809127563503  0.009583333030430507  0.9993411522345534  1.0000
  V   V7        1.0  0.004166808712221036  0.009583333030430507  0.9997448775988953  1.0000
  V   V8        1.0  0.007500141995070564  0.002916666464731449  0.9994757274520805  1.0000
  V   V9        1.0  0.0008131976708756119  0.006166943161415382  0.9999999729054987  1.0000
  V   V10       1.0  0.002525470003143819  0.0077995067308239095  0.9998790766640369  1.0000
  V   V11       1.0  0.005833475407503254  0.001249999902187629  0.9996103026696076  1.0000
  V   V12       1.0  0.00916680908970065  0.004583333106156213  0.9993411522345534  1.0000
  V   V13       1.0  0.009166808338786551  0.0070833333838171385  0.9997448775988953  1.0000
  V   V14       1.0  0.002500141698377131  0.0004166666209157189  0.9994757274520805  1.0000
  V   V15       1.0  0.005750574447779821  0.0038524860103319753  0.9999999682936687  1.0000
  V   V16       1.0  0.007382701617383429  0.0005080771329478067  0.9998790760875581  1.0000
  V   V17       1.0  0.0008334751161130744  0.0037499997854438315  0.9996103026696076  1.0000
  V   V18       1.0  0.00416680860110811  0.0070833333838171385  0.9993411522345534  1.0000
  Pt  Pt1       1.0  0.006666586866344657  0.007083096740983674  0.9999466422796784  1.0000
  Pt  Pt2       1.0  1.4172706855107002e-07  0.0004166666209157189  0.9996775904224908  1.0000
  Pt  Pt3       1.0  0.0033334749849522954  0.0037499997854438315  0.9994084399874367  1.0000
  Pt  Pt4       1.0  0.00666680846994733  0.0070833333838171385  0.9995430149167244  1.0000
  Pt  Pt5       1.0  0.009999858295793312  0.0004167462512291797  6.325816640722355e-05  1.0000
  Pt  Pt6       1.0  0.0033336542574213496  0.0037501177913367855  0.9998061088660107  1.0000
