data_image0
_chemical_formula_structural       COVFeVFeVFeVFeVFeVFeVFeVFeVFeVFeVFeVFe
_chemical_formula_sum              "C1 O1 V12 Fe12"
_cell_length_a       5.747210502624512
_cell_length_b       5.747210502624512
_cell_length_c       98.73605346679688
_cell_angle_alpha    90.0
_cell_angle_beta     90.0
_cell_angle_gamma    90.0

_space_group_name_H-M_alt    "P 1"
_space_group_IT_number       1

loop_
  _space_group_symop_operation_xyz
  'x, y, z'

loop_
  _atom_site_type_symbol
  _atom_site_label
  _atom_site_symmetry_multiplicity
  _atom_site_fract_x
  _atom_site_fract_y
  _atom_site_fract_z
  _atom_site_occupancy
  C   C1        1.0  0.001250000022686686  0.0037499999870361797  0.00017542238237327698  1.0000
  O   O1        1.0  0.001250000022686686  0.0037499999870361797  0.00029695817697626524  1.0000
  V   V1        1.0  0.001250000022686686  0.0037499999870361797  0.0  1.0000
  Fe  Fe1       1.0  0.0037499999870361797  0.001250000022686686  0.9998544801341912  1.0000
  V   V2        1.0  0.001250000022686686  0.0037499999870361797  0.9997089608720591  1.0000
  Fe  Fe2       1.0  0.0037499999870361797  0.001250000022686686  0.9995634413080886  1.0000
  V   V3        1.0  0.001250000022686686  0.0037499999870361797  0.999417921744118  1.0000
  Fe  Fe3       1.0  0.0037499999870361797  0.001250000022686686  0.9992724021801476  1.0000
  V   V4        1.0  0.001250000022686686  0.008750000077782925  0.0  1.0000
  Fe  Fe4       1.0  0.0037499999870361797  0.006249999870361794  0.9998544801341912  1.0000
  V   V5        1.0  0.001250000022686686  0.008750000077782925  0.9997089608720591  1.0000
  Fe  Fe5       1.0  0.0037499999870361797  0.006249999870361794  0.9995634413080886  1.0000
  V   V6        1.0  0.001250000022686686  0.008750000077782925  0.999417921744118  1.0000
  Fe  Fe6       1.0  0.0037499999870361797  0.006249999870361794  0.9992724021801476  1.0000
  V   V7        1.0  0.006249999870361794  0.0037499999870361797  0.0  1.0000
  Fe  Fe7       1.0  0.008750000077782925  0.001250000022686686  0.9998544801341912  1.0000
  V   V8        1.0  0.006249999870361794  0.0037499999870361797  0.9997089608720591  1.0000
  Fe  Fe8       1.0  0.008750000077782925  0.001250000022686686  0.9995634413080886  1.0000
  V   V9        1.0  0.006249999870361794  0.0037499999870361797  0.999417921744118  1.0000
  Fe  Fe9       1.0  0.008750000077782925  0.001250000022686686  0.9992724021801476  1.0000
  V   V10       1.0  0.006249999870361794  0.008750000077782925  0.0  1.0000
  Fe  Fe10      1.0  0.008750000077782925  0.006249999870361794  0.9998544801341912  1.0000
  V   V11       1.0  0.006249999870361794  0.008750000077782925  0.9997089608720591  1.0000
  Fe  Fe11      1.0  0.008750000077782925  0.006249999870361794  0.9995634413080886  1.0000
  V   V12       1.0  0.006249999870361794  0.008750000077782925  0.999417921744118  1.0000
  Fe  Fe12      1.0  0.008750000077782925  0.006249999870361794  0.9992724021801476  1.0000
