data_image0
_chemical_formula_structural       HSb12Os6Sb12Os6
_chemical_formula_sum              "H1 Sb24 Os12"
_cell_length_a       6.538243293762207
_cell_length_b       13.863332898353338
_cell_length_c       106.36798095703125
_cell_angle_alpha    102.30547947237471
_cell_angle_beta     90.0
_cell_angle_gamma    90.0

_space_group_name_H-M_alt    "P 1"
_space_group_IT_number       1

loop_
  _space_group_symop_operation_xyz
  'x, y, z'

loop_
  _atom_site_type_symbol
  _atom_site_label
  _atom_site_symmetry_multiplicity
  _atom_site_fract_x
  _atom_site_fract_y
  _atom_site_fract_z
  _atom_site_occupancy
  H   H1        1.0  0.004999999658138421  0.0002510388953578645  0.00015527818327731868  1.0000
  Sb  Sb1       1.0  0.00250000011395386  0.0015382143148710543  4.272731345521931e-05  1.0000
  Sb  Sb2       1.0  0.00250000011395386  0.00822312936521085  0.9994661476011087  1.0000
  Sb  Sb3       1.0  0.00250000011395386  0.004889795687167983  0.9997510703892194  1.0000
  Sb  Sb4       1.0  0.00250000011395386  0.005153192092723543  0.9994851909592365  1.0000
  Sb  Sb5       1.0  0.00250000011395386  0.0018198591022661832  0.9997701137664463  1.0000
  Sb  Sb6       1.0  0.00250000011395386  0.008503537736347232  4.510133665896989e-05  1.0000
  Sb  Sb7       1.0  4.999999989566343e-11  0.002768907661926585  0.9995049730774898  1.0000
  Sb  Sb8       1.0  4.999999989566343e-11  0.009435574192909711  0.9997898954343236  1.0000
  Sb  Sb9       1.0  1.499999996869903e-10  0.006130717556226144  8.458736594611851e-05  1.0000
  Sb  Sb10      1.0  4.999999989566343e-11  0.003938065406513049  1.677512068012901e-05  1.0000
  Sb  Sb11      1.0  4.999999989566343e-11  0.0006074142058087716  0.9994463656511401  1.0000
  Sb  Sb12      1.0  4.999999989566343e-11  0.00727408094306755  0.9997312880137038  1.0000
  Os  Os1       1.0  0.00250000011395386  0.003354827325958532  0.9993332079578452  1.0000
  Os  Os2       1.0  0.00250000011395386  2.149420013277529e-05  0.9996181304811135  1.0000
  Os  Os3       1.0  0.0024999998290692106  0.006692110220119597  0.9999035623625202  1.0000
  Os  Os4       1.0  4.999999989566343e-11  0.003354827325958532  0.9997605917957416  1.0000
  Os  Os5       1.0  0.009999999316276842  0.009978506011041922  3.562015935186563e-05  1.0000
  Os  Os6       1.0  4.999999989566343e-11  0.006688160728967197  0.9994756692801726  1.0000
  Sb  Sb13      1.0  0.007499999772092281  0.0015382143148710543  4.272731345521931e-05  1.0000
  Sb  Sb14      1.0  0.007499999772092281  0.00822312936521085  0.9994661476011087  1.0000
  Sb  Sb15      1.0  0.007499999772092281  0.004889795687167983  0.9997510703892194  1.0000
  Sb  Sb16      1.0  0.007499999772092281  0.005153192092723543  0.9994851909592365  1.0000
  Sb  Sb17      1.0  0.007499999772092281  0.0018198591022661832  0.9997701137664463  1.0000
  Sb  Sb18      1.0  0.007499999772092281  0.008503537736347232  4.510133665896989e-05  1.0000
  Sb  Sb19      1.0  0.004999999658138421  0.002768907661926585  0.9995049730774898  1.0000
  Sb  Sb20      1.0  0.004999999658138421  0.009435574192909711  0.9997898954343236  1.0000
  Sb  Sb21      1.0  0.00500000022790772  0.006130717556226144  8.458736594611851e-05  1.0000
  Sb  Sb22      1.0  0.004999999658138421  0.003938065406513049  1.677512068012901e-05  1.0000
  Sb  Sb23      1.0  0.004999999658138421  0.0006074142058087716  0.9994463656511401  1.0000
  Sb  Sb24      1.0  0.004999999658138421  0.00727408094306755  0.9997312880137038  1.0000
  Os  Os7       1.0  0.007499999772092281  0.003354827325958532  0.9993332079578452  1.0000
  Os  Os8       1.0  0.007499999772092281  2.149420013277529e-05  0.9996181304811135  1.0000
  Os  Os9       1.0  0.007499999772092281  0.006692110220119597  0.9999035623625202  1.0000
  Os  Os10      1.0  0.004999999658138421  0.003354827325958532  0.9997605917957416  1.0000
  Os  Os11      1.0  0.004999999658138421  0.009978506011041922  3.562015935186563e-05  1.0000
  Os  Os12      1.0  0.004999999658138421  0.006688160728967197  0.9994756692801726  1.0000
