data_image0
_chemical_formula_structural       COV18Sn6V18Sn6
_chemical_formula_sum              "C1 O1 V36 Sn12"
_cell_length_a       4.542364597320557
_cell_length_b       15.006023368083994
_cell_length_c       104.03046417236328
_cell_angle_alpha    79.1066050485587
_cell_angle_beta     90.0
_cell_angle_gamma    90.0

_space_group_name_H-M_alt    "P 1"
_space_group_IT_number       1

loop_
  _space_group_symop_operation_xyz
  'x, y, z'

loop_
  _atom_site_type_symbol
  _atom_site_label
  _atom_site_symmetry_multiplicity
  _atom_site_fract_x
  _atom_site_fract_y
  _atom_site_fract_z
  _atom_site_occupancy
  C   C1        1.0  0.0025004608836090045  0.0009464690001994963  0.9998588481815358  1.0000
  O   O1        1.0  0.0025004608836090045  0.0009464690001994963  0.9999741992415754  1.0000
  V   V1        1.0  0.0025002849675741065  0.006194325505358084  0.9989027449543392  1.0000
  V   V2        1.0  0.0025002849675741065  0.0028609923574176356  0.9992662115995756  1.0000
  V   V3        1.0  0.0025002849675741065  0.009527658906107012  0.9990844781745148  1.0000
  V   V4        1.0  0.0075002847133364805  0.009029575639326354  0.9992202560806525  1.0000
  V   V5        1.0  0.0075002847133364805  0.005696242238577426  0.999038522287523  1.0000
  V   V6        1.0  0.0075002847133364805  0.0023629088378284975  0.9988567890673472  1.0000
  V   V7        1.0  0.0075002847133364805  0.00719049254453636  0.9991199891520938  1.0000
  V   V8        1.0  0.0075002847133364805  0.0038571591437874322  0.9989382556454411  1.0000
  V   V9        1.0  0.0075002847133364805  0.0005238259958469837  0.998756522131897  1.0000
  V   V10       1.0  0.0025002849675741065  0.00435524291618505  0.9988024780119974  1.0000
  V   V11       1.0  0.0025002849675741065  0.0010219095154361218  0.9991659446641253  1.0000
  V   V12       1.0  0.0025002849675741065  0.007688575811317018  0.9989842112459562  1.0000
  V   V13       1.0  0.0025002849675741065  0.006194325505358084  0.9991471446797687  1.0000
  V   V14       1.0  0.0025002849675741065  0.0028609923574176356  0.9989654111662245  1.0000
  V   V15       1.0  0.0025002849675741065  0.009527658906107012  0.9987836777411638  1.0000
  V   V16       1.0  0.0075002847133364805  0.00719049254453636  0.9988755894266642  1.0000
  V   V17       1.0  0.0075002847133364805  0.0038571591437874322  0.9992390560787923  1.0000
  V   V18       1.0  0.0075002847133364805  0.0005238259958469837  0.999057322851725  1.0000
  Sn  Sn1       1.0  0.0025002849675741065  0.007803520242799691  0.9992536783682227  1.0000
  Sn  Sn2       1.0  0.0025002849675741065  0.0044701868420507634  0.9990719445750932  1.0000
  Sn  Sn3       1.0  0.0025002849675741065  0.001136853567706075  0.9988902113514717  1.0000
  Sn  Sn4       1.0  0.0075002847133364805  0.005581297807094753  0.9987690557382103  1.0000
  Sn  Sn5       1.0  0.0075002847133364805  0.0022479646591543044  0.9991325223834467  1.0000
  Sn  Sn6       1.0  0.0075002847133364805  0.00891463171346064  0.9989507889446029  1.0000
  V   V19       1.0  0.0025002849675741065  0.006194325505358084  0.9994479448266429  1.0000
  V   V20       1.0  0.002500731113602006  0.002825560743365335  0.9997467036602614  1.0000
  V   V21       1.0  0.002500190858646347  0.009511642983298622  0.9996318936625026  1.0000
  V   V22       1.0  0.007500078862871402  0.009223179406811801  0.9997544854430169  1.0000
  V   V23       1.0  0.007500101826269897  0.005768510070595454  0.9995795434009825  1.0000
  V   V24       1.0  0.0075002847133364805  0.0023629088378284975  0.9994019895126047  1.0000
  V   V25       1.0  0.007499961585514804  0.00735794125232503  0.9996733542567016  1.0000
  V   V26       1.0  0.0075002847133364805  0.0038571591437874322  0.9994834558042218  1.0000
  V   V27       1.0  0.0075002847133364805  0.0005238259958469837  0.9993017225771545  1.0000
  V   V28       1.0  0.0025002849675741065  0.00435524291618505  0.9993476784572548  1.0000
  V   V29       1.0  0.0025004012197789864  0.0008541384136336661  0.9997027262527257  1.0000
  V   V30       1.0  0.0025001432916066076  0.00775776696413663  0.9995251546567765  1.0000
  V   V31       1.0  0.0024997145731579236  0.006419648141562394  0.9996683765166667  1.0000
  V   V32       1.0  0.0025002849675741065  0.0028609923574176356  0.9995106113250052  1.0000
  V   V33       1.0  0.0025002849675741065  0.009527658906107012  0.9993288778999444  1.0000
  V   V34       1.0  0.0075002847133364805  0.00719049254453636  0.9994207898719217  1.0000
  V   V35       1.0  0.00750013463112489  0.003777040344431127  0.9997228346758308  1.0000
  V   V36       1.0  0.00750010756711952  0.0004723409801291726  0.9995975675655501  1.0000
  Sn  Sn7       1.0  0.0025013976672493858  0.007855465812365466  0.9998078177696749  1.0000
  Sn  Sn8       1.0  0.0025002193578641217  0.004598303100944768  0.9996300871747326  1.0000
  Sn  Sn9       1.0  0.0025002849675741065  0.001136853567706075  0.9994354117967291  1.0000
  Sn  Sn10      1.0  0.0075002847133364805  0.005581297807094753  0.9993142561834678  1.0000
  Sn  Sn11      1.0  0.007499958305029304  0.001990692213684891  0.9997032436313305  1.0000
  Sn  Sn12      1.0  0.0075002847133364805  0.00891463171346064  0.9994959893898604  1.0000
