data_image0
_chemical_formula_structural       HAl5Co5Al5Co5Al5Co5Al5Co5
_chemical_formula_sum              "H1 Al20 Co20"
_cell_length_a       8.124338150024414
_cell_length_b       6.42285319679646
_cell_length_c       104.82584381103516
_cell_angle_alpha    75.03678229095391
_cell_angle_beta     90.0
_cell_angle_gamma    71.56505099250305

_space_group_name_H-M_alt    "P 1"
_space_group_IT_number       1

loop_
  _space_group_symop_operation_xyz
  'x, y, z'

loop_
  _atom_site_type_symbol
  _atom_site_label
  _atom_site_symmetry_multiplicity
  _atom_site_fract_x
  _atom_site_fract_y
  _atom_site_fract_z
  _atom_site_occupancy
  H   H1        1.0  0.004236168630680665  0.00406331648113625  0.9999856135670901  1.0000
  Al  Al1       1.0  0.004002443917856324  0.004999999949170862  0.9990637759535465  1.0000
  Al  Al2       1.0  0.00300244386448573  0.00900000016265324  0.9991586979252722  1.0000
  Al  Al3       1.0  2.443985805988428e-06  0.001000000053370594  0.9994434623398176  1.0000
  Al  Al4       1.0  0.0020024438834624794  0.0030000001601117815  0.9992536195706239  1.0000
  Al  Al5       1.0  0.0010024439095124122  0.00700000005591205  0.999348540694466  1.0000
  Co  Co1       1.0  0.004002443917856324  0.004999999949170862  0.9993010801350578  1.0000
  Co  Co2       1.0  0.00300244386448573  0.00900000016265324  0.9993960018224805  1.0000
  Co  Co3       1.0  2.443985805988428e-06  0.001000000053370594  0.9992061584426094  1.0000
  Co  Co4       1.0  0.0020024438834624794  0.0030000001601117815  0.9990163151048094  1.0000
  Co  Co5       1.0  0.0010024439095124122  0.00700000005591205  0.9991112367972578  1.0000
  Al  Al6       1.0  0.004002443917856324  0.004999999949170862  0.999538384032266  1.0000
  Al  Al7       1.0  0.0030026714123923665  0.008999761265708948  0.9996315581914182  1.0000
  Al  Al8       1.0  0.009994686290756876  0.001028390985570462  0.9999085670623309  1.0000
  Al  Al9       1.0  0.0019996627276460456  0.0030112146561628458  0.9997354770853221  1.0000
  Al  Al10      1.0  0.0010554095864765318  0.006786780085583254  0.9998381138657834  1.0000
  Co  Co6       1.0  0.003990255369240193  0.0050467255864808155  0.9997728676176864  1.0000
  Co  Co7       1.0  0.003008985527674831  0.008972655992995175  0.9998580501217219  1.0000
  Co  Co8       1.0  0.00999755620228783  0.0010208437323394163  0.999677089667089  1.0000
  Co  Co9       1.0  0.0020024438834624794  0.0030000001601117815  0.9994909234678321  1.0000
  Co  Co10      1.0  0.0010024439095124122  0.00700000005591205  0.9995858451602805  1.0000
  Al  Al11      1.0  0.009002444339708175  0.004999999949170862  0.9990637759535465  1.0000
  Al  Al12      1.0  0.00800244428633758  0.00900000016265324  0.9991586979252722  1.0000
  Al  Al13      1.0  0.005002443891806391  0.001000000053370594  0.9994434623398176  1.0000
  Al  Al14      1.0  0.007002443846779709  0.0030000001601117815  0.9992536195706239  1.0000
  Al  Al15      1.0  0.006002443872829642  0.00700000005591205  0.999348540694466  1.0000
  Co  Co11      1.0  0.009002444339708175  0.004999999949170862  0.9993010801350578  1.0000
  Co  Co12      1.0  0.00800244428633758  0.00900000016265324  0.9993960018224805  1.0000
  Co  Co13      1.0  0.005002443891806391  0.001000000053370594  0.9992061584426094  1.0000
  Co  Co14      1.0  0.007002443846779709  0.0030000001601117815  0.9990163151048094  1.0000
  Co  Co15      1.0  0.006002443872829642  0.00700000005591205  0.9991112367972578  1.0000
  Al  Al16      1.0  0.009002444339708175  0.004999999949170862  0.999538384032266  1.0000
  Al  Al17      1.0  0.008002671834244217  0.008999761265708948  0.9996315581914182  1.0000
  Al  Al18      1.0  0.0049946863274396465  0.001028390985570462  0.9999085670623309  1.0000
  Al  Al19      1.0  0.006999663149497895  0.0030112146561628458  0.9997354770853221  1.0000
  Al  Al20      1.0  0.006055409549793763  0.006786780085583254  0.9998381138657834  1.0000
  Co  Co16      1.0  0.008990255791092042  0.0050467255864808155  0.9997728676176864  1.0000
  Co  Co17      1.0  0.008008985949526681  0.008972655992995175  0.9998580501217219  1.0000
  Co  Co18      1.0  0.004997556238970599  0.0010208437323394163  0.999677089667089  1.0000
  Co  Co19      1.0  0.007002443846779709  0.0030000001601117815  0.9994909234678321  1.0000
  Co  Co20      1.0  0.006002443872829642  0.00700000005591205  0.9995858451602805  1.0000
