data_image0
_chemical_formula_structural       Sn4Rh8Sn4Rh8H
_chemical_formula_sum              "Sn8 Rh16 H1"
_cell_length_a       5.61175537109375
_cell_length_b       9.205694286125683
_cell_length_c       104.56245422363281
_cell_angle_alpha    117.98939571796745
_cell_angle_beta     90.0
_cell_angle_gamma    90.0

_space_group_name_H-M_alt    "P 1"
_space_group_IT_number       1

loop_
  _space_group_symop_operation_xyz
  'x, y, z'

loop_
  _atom_site_type_symbol
  _atom_site_label
  _atom_site_symmetry_multiplicity
  _atom_site_fract_x
  _atom_site_fract_y
  _atom_site_fract_z
  _atom_site_occupancy
  Sn  Sn1       1.0  0.008054492448786204  0.008972117479762882  0.9994665327380915  1.0000
  Sn  Sn2       1.0  0.0030544921566979678  0.006030580255301117  0.9997581741429943  1.0000
  Sn  Sn3       1.0  0.00197147726902427  0.0010305802598838643  0.9997581743483975  1.0000
  Sn  Sn4       1.0  0.006971477727071732  0.003972117828051682  0.999466532957696  1.0000
  Rh  Rh1       1.0  0.0017513009902152355  0.004330561538627589  0.9994813431204331  1.0000
  Rh  Rh2       1.0  0.0046075170134494  0.002770500614264126  0.9996234743042333  1.0000
  Rh  Rh3       1.0  0.009607517637456087  0.002232197588240104  0.9996012327215746  1.0000
  Rh  Rh4       1.0  0.008274668561636014  0.00567213654472521  0.9997433639802572  1.0000
  Rh  Rh5       1.0  0.003274668269547777  0.009330561648613527  0.9994813429197635  1.0000
  Rh  Rh6       1.0  0.0067513009503850216  0.0006721363774549301  0.9997433641785599  1.0000
  Rh  Rh7       1.0  0.00041845220482380645  0.007770500953387432  0.9996234743980507  1.0000
  Rh  Rh8       1.0  0.00541845253840185  0.007232197698226041  0.9996012328059245  1.0000
  Sn  Sn5       1.0  0.008054492448786204  0.008972117479762882  0.9998797124590699  1.0000
  Sn  Sn6       1.0  0.0031859209099192234  0.005893471327898053  0.00017219436944271185  1.0000
  Sn  Sn7       1.0  0.0018373080311137064  0.0008945596204141878  0.00017214149402755915  1.0000
  Sn  Sn8       1.0  0.006971477727071732  0.003972117828051682  0.9998797126786744  1.0000
  Rh  Rh9       1.0  0.0017694804956858462  0.004344521503687844  0.9998945541116537  1.0000
  Rh  Rh10      1.0  0.004822786043922084  0.002740319785725104  4.2885637595649645e-05  1.0000
  Rh  Rh11      1.0  0.009797891456442442  0.002315243615697639  2.00432292550313e-05  1.0000
  Rh  Rh12      1.0  0.008332317485850609  0.005655072684866417  0.00013965155360933575  1.0000
  Rh  Rh13      1.0  0.0032574881705326264  0.00934470217392044  0.9998944020455504  1.0000
  Rh  Rh14      1.0  0.006691554301561158  0.0006552975877766968  0.00013954134322702053  1.0000
  Rh  Rh15      1.0  0.00020210860911145146  0.007740260319995139  4.295309013837201e-05  1.0000
  Rh  Rh16      1.0  0.005225145224147026  0.007313439268903826  2.0075639387591253e-05  1.0000
  H   H1        1.0  0.002197384949683075  0.0020287146683375537  8.38223506190353e-05  1.0000
