data_image0
_chemical_formula_structural       COAu16Sb32
_chemical_formula_sum              "C1 O1 Au16 Sb32"
_cell_length_a       9.668693542480469
_cell_length_b       11.841682434082031
_cell_length_c       103.49333953857422
_cell_angle_alpha    90.0
_cell_angle_beta     90.0
_cell_angle_gamma    90.0

_space_group_name_H-M_alt    "P 1"
_space_group_IT_number       1

loop_
  _space_group_symop_operation_xyz
  'x, y, z'

loop_
  _atom_site_type_symbol
  _atom_site_label
  _atom_site_symmetry_multiplicity
  _atom_site_fract_x
  _atom_site_fract_y
  _atom_site_fract_z
  _atom_site_occupancy
  C   C1        1.0  0.007714835658824504  0.009925007020671176  4.256736636034335e-05  1.0000
  O   O1        1.0  0.007714835658824504  0.009925007020671176  0.00015851709193879374  1.0000
  Au  Au1       1.0  3.0551998732066564e-06  0.003408326526584244  0.9992112493525656  1.0000
  Au  Au2       1.0  0.0050030550737496  7.499300213669407e-05  0.9994809397166061  1.0000
  Au  Au3       1.0  0.009996944772132772  0.006839304885299911  0.9997479730398179  1.0000
  Au  Au4       1.0  0.005178578484957133  0.003257368317214984  0.9999477006132806  1.0000
  Au  Au5       1.0  0.007503054919631972  0.006741659520158971  0.999346094390604  1.0000
  Au  Au6       1.0  0.002503055227867229  0.003408326526584244  0.999615784466681  1.0000
  Au  Au7       1.0  0.007714835658824504  0.009925007020671176  0.9998752086377455  1.0000
  Au  Au8       1.0  0.002503055227867229  7.499300213669407e-05  0.9990764046024907  1.0000
  Au  Au9       1.0  0.002503055227867229  0.006741659520158971  0.999346094390604  1.0000
  Au  Au10      1.0  0.007503054919631972  0.003408326526584244  0.999615784466681  1.0000
  Au  Au11      1.0  0.002668713569674977  0.009838274827807319  0.9998839229944773  1.0000
  Au  Au12      1.0  0.007503054919631972  7.499300213669407e-05  0.9990764046024907  1.0000
  Au  Au13      1.0  0.0007139360915652285  0.004213221900966618  0.9999137623664042  1.0000
  Au  Au14      1.0  0.0050030550737496  0.003408326526584244  0.9992112493525656  1.0000
  Au  Au15      1.0  3.0551998732066564e-06  7.499300213669407e-05  0.9994809397166061  1.0000
  Au  Au16      1.0  0.004975613274114354  0.006727602322406616  0.9997456848804567  1.0000
  Sb  Sb1       1.0  0.0037645723611856355  0.004662165710752053  0.9994141381912519  1.0000
  Sb  Sb2       1.0  0.00876457243824445  0.001328832245290372  0.9996838279793653  1.0000
  Sb  Sb3       1.0  0.003789686599336579  0.007738531405453405  0.9999663485649438  1.0000
  Sb  Sb4       1.0  0.00876457243824445  0.007995499018918082  0.999144448115175  1.0000
  Sb  Sb5       1.0  0.007503054919631972  0.002980142282246847  0.999346094390604  1.0000
  Sb  Sb6       1.0  0.002503055227867229  0.009646808898578906  0.999615784466681  1.0000
  Sb  Sb7       1.0  0.007477535352118094  0.006418167171542923  0.9998838953499645  1.0000
  Sb  Sb8       1.0  0.002503055227867229  0.006313475590412876  0.9990764046024907  1.0000
  Sb  Sb9       1.0  0.008741538017490008  0.007995499018918082  0.9995489832292904  1.0000
  Sb  Sb10      1.0  0.00345167735770381  0.004723698825709694  0.999836951511672  1.0000
  Sb  Sb11      1.0  0.008741538017490008  0.004662165710752053  0.9990096033651001  1.0000
  Sb  Sb12      1.0  0.0037415375551371225  0.001328832245290372  0.9992792931532135  1.0000
  Sb  Sb13      1.0  3.0551998732066564e-06  0.004662165710752053  0.9996145421913871  1.0000
  Sb  Sb14      1.0  0.005148711259143491  0.0010379516894368356  0.9998824797205383  1.0000
  Sb  Sb15      1.0  3.0551998732066564e-06  0.001328832245290372  0.9990751620392332  1.0000
  Sb  Sb16      1.0  0.0050030550737496  0.007995499018918082  0.9993448521153102  1.0000
  Sb  Sb17      1.0  3.0551998732066564e-06  0.005487820650582465  0.9993473369538615  1.0000
  Sb  Sb18      1.0  0.0050030550737496  0.002154487185120784  0.9996170267419747  1.0000
  Sb  Sb19      1.0  0.00015388499515623706  0.008787848806755694  0.9999211382679747  1.0000
  Sb  Sb20      1.0  0.0050030550737496  0.008821153958748494  0.9990776468777844  1.0000
  Sb  Sb21      1.0  0.0012645726116267818  0.002154487185120784  0.9994128956279945  1.0000
  Sb  Sb22      1.0  0.006264572592362078  0.008821153958748494  0.9996825857040714  1.0000
  Sb  Sb23      1.0  0.001157803482577557  0.006490335674657709  0.0  1.0000
  Sb  Sb24      1.0  0.006264572592362078  0.005487820650582465  0.9991432058398813  1.0000
  Sb  Sb25      1.0  0.002503055227867229  0.00716984407908767  0.999615784466681  1.0000
  Sb  Sb26      1.0  0.007824925733797183  0.003984410209058555  0.9998818346819064  1.0000
  Sb  Sb27      1.0  0.002503055227867229  0.003836510456330338  0.9990764046024907  1.0000
  Sb  Sb28      1.0  0.007503054919631972  0.0005031771088403962  0.999346094390604  1.0000
  Sb  Sb29      1.0  0.006241537786313566  0.005487820650582465  0.9995477409539967  1.0000
  Sb  Sb30      1.0  0.0013498402123839556  0.0020575941650793146  0.9998160528359252  1.0000
  Sb  Sb31      1.0  0.006241537786313566  0.002154487185120784  0.9990083608018427  1.0000
  Sb  Sb32      1.0  0.001241537805578269  0.008821153958748494  0.9992780508779197  1.0000
