data_image0
_chemical_formula_structural       HMn6Al6Pt6Mn6Al6Pt6
_chemical_formula_sum              "H1 Mn12 Al12 Pt12"
_cell_length_a       5.3462233543396
_cell_length_b       11.27410510382902
_cell_length_c       99.82847595214844
_cell_angle_alpha    79.10660606452804
_cell_angle_beta     90.0
_cell_angle_gamma    90.0

_space_group_name_H-M_alt    "P 1"
_space_group_IT_number       1

loop_
  _space_group_symop_operation_xyz
  'x, y, z'

loop_
  _atom_site_type_symbol
  _atom_site_label
  _atom_site_symmetry_multiplicity
  _atom_site_fract_x
  _atom_site_fract_y
  _atom_site_fract_z
  _atom_site_occupancy
  H   H1        1.0  0.0028711226309425667  0.00968103654756841  4.1838686428544534e-05  1.0000
  Mn  Mn1       1.0  0.0003715946816655165  0.006985629984501325  0.9994048148437052  1.0000
  Mn  Mn2       1.0  0.0003715946816655165  0.0036522965434904447  0.9992625302987106  1.0000
  Mn  Mn3       1.0  0.0003715946816655165  0.00031896322866418943  0.9995470992615456  1.0000
  Mn  Mn4       1.0  0.005371594362875934  0.006985629984501325  0.9994048148437052  1.0000
  Mn  Mn5       1.0  0.005371594362875934  0.0036522965434904447  0.9992625302987106  1.0000
  Mn  Mn6       1.0  0.005371594362875934  0.00031896322866418943  0.9995470992615456  1.0000
  Al  Al1       1.0  0.0028715945440459696  0.005874518837497698  0.9992151021585327  1.0000
  Al  Al2       1.0  0.0028715945440459696  0.002541185396486818  0.9994996711240609  1.0000
  Al  Al3       1.0  0.0028715945440459696  0.00920785160552391  0.9993573867178907  1.0000
  Al  Al4       1.0  0.007871594181705898  0.008096740458520284  0.9991676740327182  1.0000
  Al  Al5       1.0  0.007871594181705898  0.0047634073540017375  0.9994522429910647  1.0000
  Al  Al6       1.0  0.007871594181705898  0.001430074249483191  0.9993099584388884  1.0000
  Pt  Pt1       1.0  0.007871594181705898  0.005874518837497698  0.9992151021585327  1.0000
  Pt  Pt2       1.0  0.007871594181705898  0.002541185396486818  0.9994996711240609  1.0000
  Pt  Pt3       1.0  0.007871594181705898  0.00920785160552391  0.9993573867178907  1.0000
  Pt  Pt4       1.0  0.0028715945440459696  0.008096740458520284  0.9991676740327182  1.0000
  Pt  Pt5       1.0  0.0028715945440459696  0.0047634073540017375  0.9994522429910647  1.0000
  Pt  Pt6       1.0  0.0028715945440459696  0.001430074249483191  0.9993099584388884  1.0000
  Mn  Mn7       1.0  0.009628404898507765  0.0069481642550341845  0.9998392814434226  1.0000
  Mn  Mn8       1.0  0.000884215080791133  0.0036510468109614714  0.9997037831645502  1.0000
  Mn  Mn9       1.0  0.0011899472685378309  0.0004461550175820206  0.9999724875308208  1.0000
  Mn  Mn10      1.0  0.006084797036713768  0.0069474885784272435  0.9998387889512486  1.0000
  Mn  Mn11      1.0  0.00486488859926954  0.0036512863935033745  0.9997036807287184  1.0000
  Mn  Mn12      1.0  0.004556002397977745  0.00044464551297109575  0.9999728594808209  1.0000
  Al  Al7       1.0  0.0028715945440459696  0.005874518837497698  0.9996419556690554  1.0000
  Al  Al8       1.0  0.0028790202508967525  0.0027057987923144763  0.9999422510498788  1.0000
  Al  Al9       1.0  0.002867418052110166  0.009039297884463544  0.999800367437968  1.0000
  Al  Al10      1.0  0.007871594181705898  0.008096740458520284  0.999594527543241  1.0000
  Al  Al11      1.0  0.007860874490037008  0.004632737622379839  0.999887324952958  1.0000
  Al  Al12      1.0  0.007871082724758097  0.0012564241837761982  0.9997329359050027  1.0000
  Pt  Pt7       1.0  0.007871594181705898  0.005874518837497698  0.9996419556690554  1.0000
  Pt  Pt8       1.0  0.007874227418498457  0.0023520386810697877  0.9999263680039432  1.0000
  Pt  Pt9       1.0  0.007866331888967763  0.009082197965126947  0.9998633121156324  1.0000
  Pt  Pt10      1.0  0.0028715945440459696  0.008096740458520284  0.999594527543241  1.0000
  Pt  Pt11      1.0  0.0028567258843505924  0.005044689708412649  0.9998861609722333  1.0000
  Pt  Pt12      1.0  0.002875964574356776  0.0013730784208198328  0.9997310850585122  1.0000
