data_image0
_chemical_formula_structural       Ga9Pt15H
_chemical_formula_sum              "Ga9 Pt15 H1"
_cell_length_a       5.57215556183382
_cell_length_b       6.865279050488205
_cell_length_c       109.06537628173828
_cell_angle_alpha    90.95488063535913
_cell_angle_beta     92.50370940597924
_cell_angle_gamma    93.56286599649063

_space_group_name_H-M_alt    "P 1"
_space_group_IT_number       1

loop_
  _space_group_symop_operation_xyz
  'x, y, z'

loop_
  _atom_site_type_symbol
  _atom_site_label
  _atom_site_symmetry_multiplicity
  _atom_site_fract_x
  _atom_site_fract_y
  _atom_site_fract_z
  _atom_site_occupancy
  Ga  Ga1       1.0  6.197474859413579e-05  0.000995634265770455  0.9994471442738428  1.0000
  Ga  Ga2       1.0  0.0003518136490514864  0.004164643401868672  3.729599342015079e-05  1.0000
  Ga  Ga3       1.0  6.197474396021506e-05  0.0076623011100723105  0.9997456302100695  1.0000
  Ga  Ga4       1.0  0.007204087110918704  0.008019651812815097  0.9999842775000817  1.0000
  Ga  Ga5       1.0  0.007207465676232313  0.0012319735339345911  0.9996815903255419  1.0000
  Ga  Ga6       1.0  0.007207465288903819  0.004565306820140221  0.9993831042997705  1.0000
  Ga  Ga7       1.0  0.002859929737297809  0.003992166340386352  0.9998053868887844  1.0000
  Ga  Ga8       1.0  0.002916483521301841  0.007425961841908173  0.999511184246519  1.0000
  Ga  Ga9       1.0  0.002916483433090149  0.00075929492963367  0.9992126983100138  1.0000
  Pt  Pt1       1.0  0.005061974504567139  0.004328967551976085  0.9995963875589294  1.0000
  Pt  Pt2       1.0  0.0050619744729368775  0.0076623011100723105  0.9992979015342371  1.0000
  Pt  Pt3       1.0  0.0049660569561471935  0.0009632641950642834  0.9999032073061342  1.0000
  Pt  Pt4       1.0  6.197475467818316e-05  0.004328967551976085  0.9995963875150843  1.0000
  Pt  Pt5       1.0  6.197474396021506e-05  0.0076623011100723105  0.9992979014904386  1.0000
  Pt  Pt6       1.0  0.009938025205071026  0.0010311396428702682  0.9998971935182825  1.0000
  Pt  Pt7       1.0  0.0050619744729368775  0.0076623011100723105  0.9997456302538681  1.0000
  Pt  Pt8       1.0  0.005061974557298921  0.000995634265770455  0.9994471443178193  1.0000
  Pt  Pt9       1.0  0.005024202105058085  0.00467490428755024  1.611711959235259e-05  1.0000
  Pt  Pt10      1.0  0.002148976124677686  0.000720301943902036  0.9996586813842896  1.0000
  Pt  Pt11      1.0  0.0021489762497950205  0.004053635366052964  0.9993601953598045  1.0000
  Pt  Pt12      1.0  0.0018964406222650536  0.007596132183584427  0.9999605114742147  1.0000
  Pt  Pt13      1.0  0.00802879798664288  0.004530249790631191  0.9998249635030225  1.0000
  Pt  Pt14      1.0  0.007974973062305709  0.00793763329599543  0.9995340931876051  1.0000
  Pt  Pt15      1.0  0.007974973157218512  0.0012709665876388739  0.9992356072517226  1.0000
  H   H1        1.0  0.0034312488510299106  0.009279697778769557  6.939113057772786e-05  1.0000
