data_image0
_chemical_formula_structural       HCo4Re12Co4Re12
_chemical_formula_sum              "H1 Co8 Re24"
_cell_length_a       6.991137065175015
_cell_length_b       5.449362391600497
_cell_length_c       111.94682312011719
_cell_angle_alpha    67.06207373096345
_cell_angle_beta     77.57634982742194
_cell_angle_gamma    67.06207306583656

_space_group_name_H-M_alt    "P 1"
_space_group_IT_number       1

loop_
  _space_group_symop_operation_xyz
  'x, y, z'

loop_
  _atom_site_type_symbol
  _atom_site_label
  _atom_site_symmetry_multiplicity
  _atom_site_fract_x
  _atom_site_fract_y
  _atom_site_fract_z
  _atom_site_occupancy
  H   H1        1.0  0.0003176242249168243  0.004583511790536271  0.9999867177780036  1.0000
  Co  Co1       1.0  0.0021839225305715455  0.0016666666916271282  0.9996546422161084  1.0000
  Co  Co2       1.0  0.007183922925125754  0.0016666665313310944  0.999342389722571  1.0000
  Co  Co3       1.0  0.00801725622751366  0.008333333380574959  0.9997066841045523  1.0000
  Co  Co4       1.0  0.0030172558329594505  0.008333334097608131  0.9993944314984852  1.0000
  Re  Re1       1.0  0.0005188026290636949  0.00832714628664941  0.999862907164964  1.0000
  Re  Re2       1.0  0.005518802624711994  0.008327146496511532  0.9995506546697634  1.0000
  Re  Re3       1.0  0.008014162458336005  0.003336427133118246  0.9997064908688641  1.0000
  Re  Re4       1.0  0.003014162353895184  0.0033364269735958814  0.9993942382755288  1.0000
  Re  Re5       1.0  0.0005188026290636949  0.0033364269017404405  0.9998629069297578  1.0000
  Re  Re6       1.0  0.005518802624711994  0.0033364271116025626  0.9995506544345573  1.0000
  Re  Re7       1.0  0.009682375947700642  0.001672853683873226  0.999498419160062  1.0000
  Re  Re8       1.0  0.004682375843259822  0.0016728535243508615  0.9998106716557691  1.0000
  Re  Re9       1.0  0.0021870161546925066  0.006663573562940656  0.99965483544191  1.0000
  Re  Re10      1.0  0.007187016114076632  0.006663573789582697  0.9993425829468784  1.0000
  Re  Re11      1.0  0.009682375947700642  0.006663573068782197  0.9994984193952682  1.0000
  Re  Re12      1.0  0.004682375843259822  0.006663573651576015  0.9998106718768925  1.0000
  Co  Co5       1.0  0.0021839225305715455  0.0016666666916271282  0.9990301371270659  1.0000
  Co  Co6       1.0  0.007183922925125754  0.0016666665313310944  0.9987178841010912  1.0000
  Co  Co7       1.0  0.00801725622751366  0.008333333380574959  0.9990821790155098  1.0000
  Co  Co8       1.0  0.0030172558329594505  0.008333334097608131  0.9987699264094426  1.0000
  Re  Re13      1.0  0.0005188026290636949  0.00832714628664941  0.9992384020759214  1.0000
  Re  Re14      1.0  0.005518802624711994  0.008327146496511532  0.9989261495807209  1.0000
  Re  Re15      1.0  0.008014162458336005  0.003336427133118246  0.9990819857798215  1.0000
  Re  Re16      1.0  0.003014162353895184  0.0033364269735958814  0.9987697331864862  1.0000
  Re  Re17      1.0  0.0005188026290636949  0.0033364269017404405  0.9992384018407152  1.0000
  Re  Re18      1.0  0.005518802624711994  0.0033364271116025626  0.9989261493455147  1.0000
  Re  Re19      1.0  0.009682375947700642  0.001672853683873226  0.9988739140710193  1.0000
  Re  Re20      1.0  0.004682375843259822  0.0016728535243508615  0.9991861665667265  1.0000
  Re  Re21      1.0  0.0021870161546925066  0.006663573562940656  0.9990303303528675  1.0000
  Re  Re22      1.0  0.007187016114076632  0.006663573789582697  0.9987180773253987  1.0000
  Re  Re23      1.0  0.009682375947700642  0.006663573068782197  0.9988739137737885  1.0000
  Re  Re24      1.0  0.004682375843259822  0.006663573651576015  0.9991861667878499  1.0000
