data_image0
_chemical_formula_structural       HP8Pd24
_chemical_formula_sum              "H1 P8 Pd24"
_cell_length_a       7.592249393463135
_cell_length_b       8.06357063178018
_cell_length_c       102.25428009033203
_cell_angle_alpha    81.99527528423116
_cell_angle_beta     90.0
_cell_angle_gamma    90.0

_space_group_name_H-M_alt    "P 1"
_space_group_IT_number       1

loop_
  _space_group_symop_operation_xyz
  'x, y, z'

loop_
  _atom_site_type_symbol
  _atom_site_label
  _atom_site_symmetry_multiplicity
  _atom_site_fract_x
  _atom_site_fract_y
  _atom_site_fract_z
  _atom_site_occupancy
  H   H1        1.0  0.007500000019626807  0.0038404329938276343  5.817412744294964e-05  1.0000
  P   P1        1.0  0.007500000019626807  0.007121036543145501  0.9994471718144083  1.0000
  P   P2        1.0  0.007500000019626807  0.0021210367204291094  0.999841461683081  1.0000
  P   P3        1.0  0.0024999998429855457  0.0033047596073085216  0.9995405176746638  1.0000
  P   P4        1.0  0.0024999998429855457  0.008304760129828632  0.9999348076677846  1.0000
  P   P5        1.0  0.007500000019626807  0.006695240504660073  0.9998750392175898  1.0000
  P   P6        1.0  0.007500000019626807  0.001695240332041823  0.9994807492206266  1.0000
  P   P7        1.0  0.0024999998429855457  0.0028789633355551887  0.9999683850804068  1.0000
  P   P8        1.0  0.0024999998429855457  0.00787896315827158  0.9995740952117341  1.0000
  Pd  Pd1       1.0  0.007500000019626807  0.0007954805902403575  0.9992726538105152  1.0000
  Pd  Pd2       1.0  0.007500000019626807  0.005795480471273725  0.9996669438106804  1.0000
  Pd  Pd3       1.0  0.0024999998429855457  0.005517823549079598  0.9992507583326097  1.0000
  Pd  Pd4       1.0  0.0024999998429855457  0.0005178236097292528  0.9996450484940161  1.0000
  Pd  Pd5       1.0  0.007500000019626807  0.004482176562888998  0.9993762183987126  1.0000
  Pd  Pd6       1.0  0.007500000019626807  0.009482176152337483  0.9997705084020798  1.0000
  Pd  Pd7       1.0  0.0024999998429855457  0.009204519230143355  0.999354322924009  1.0000
  Pd  Pd8       1.0  0.0024999998429855457  0.004204519174159058  0.9997486130866963  1.0000
  Pd  Pd9       1.0  0.00936867467270808  0.004189223797572247  0.9999095570484805  1.0000
  Pd  Pd10      1.0  0.00936867467270808  0.009189223387020733  0.9995152665994633  1.0000
  Pd  Pd11      1.0  0.0006313253125718145  0.0024412468405448375  0.9993774247404781  1.0000
  Pd  Pd12      1.0  0.0006313253125718145  0.007441246663261229  0.9997717150327368  1.0000
  Pd  Pd13      1.0  0.005631325366545533  0.007558753038155852  0.9992495522848588  1.0000
  Pd  Pd14      1.0  0.005631325366545533  0.0025587529821715542  0.9996438424475461  1.0000
  Pd  Pd15      1.0  0.00436867449606682  0.0058107763143963485  0.9995060004266793  1.0000
  Pd  Pd16      1.0  0.00436867449606682  0.0008107762000950748  0.9999002902985539  1.0000
  Pd  Pd17      1.0  0.0006313253125718145  0.0058107763143963485  0.9995060004266793  1.0000
  Pd  Pd18      1.0  0.0006313253125718145  0.0008107762000950748  0.9999002902985539  1.0000
  Pd  Pd19      1.0  0.00936867467270808  0.007558753038155852  0.9992495522848588  1.0000
  Pd  Pd20      1.0  0.00936867467270808  0.0025587529821715542  0.9996438424475461  1.0000
  Pd  Pd21      1.0  0.00436867449606682  0.0024412468405448375  0.9993774247404781  1.0000
  Pd  Pd22      1.0  0.00436867449606682  0.007441246663261229  0.9997717150327368  1.0000
  Pd  Pd23      1.0  0.005631325366545533  0.004189223797572247  0.9999095570484805  1.0000
  Pd  Pd24      1.0  0.005631325366545533  0.009189223387020733  0.9995152665994633  1.0000
