data_image0
_chemical_formula_structural       HPt8Rh24
_chemical_formula_sum              "H1 Pt8 Rh24"
_cell_length_a       6.725085258483887
_cell_length_b       5.49100923538208
_cell_length_c       108.0428237915039
_cell_angle_alpha    90.0
_cell_angle_beta     90.0
_cell_angle_gamma    90.0

_space_group_name_H-M_alt    "P 1"
_space_group_IT_number       1

loop_
  _space_group_symop_operation_xyz
  'x, y, z'

loop_
  _atom_site_type_symbol
  _atom_site_label
  _atom_site_symmetry_multiplicity
  _atom_site_fract_x
  _atom_site_fract_y
  _atom_site_fract_z
  _atom_site_occupancy
  H   H1        1.0  0.007222222079428932  0.006249999457252371  0.0  1.0000
  Pt  Pt1       1.0  0.0016666666869777813  0.0012499999423330643  0.9997881585803483  1.0000
  Pt  Pt2       1.0  0.008333333296404033  0.006249999457252371  0.9996414463872506  1.0000
  Pt  Pt3       1.0  0.005000000199418216  0.0012499999423330643  0.999494734745829  1.0000
  Pt  Pt4       1.0  0.005000000199418216  0.006249999457252371  0.999934870773446  1.0000
  Pt  Pt5       1.0  0.008333333296404033  0.0012499999423330643  0.9992013109113096  1.0000
  Pt  Pt6       1.0  0.005000000199418216  0.006249999457252371  0.9990545987182119  1.0000
  Pt  Pt7       1.0  0.0016666666869777813  0.0012499999423330643  0.9989078868009522  1.0000
  Pt  Pt8       1.0  0.0016666666869777813  0.006249999457252371  0.9993480225527313  1.0000
  Rh  Rh1       1.0  0.005000000199418216  0.0012499999423330643  0.999934870773446  1.0000
  Rh  Rh2       1.0  0.0016666666869777813  0.006249999457252371  0.9997881585803483  1.0000
  Rh  Rh3       1.0  0.008333333296404033  0.0012499999423330643  0.9996414463872506  1.0000
  Rh  Rh4       1.0  0.005000000199418216  0.006249999457252371  0.999494734745829  1.0000
  Rh  Rh5       1.0  0.0016666666869777813  0.008749999511527135  8.226594156830238e-06  1.0000
  Rh  Rh6       1.0  0.008333333296404033  0.0037499997421948763  0.9998615144010591  1.0000
  Rh  Rh7       1.0  0.005000000199418216  0.008749999511527135  0.9997148027596375  1.0000
  Rh  Rh8       1.0  0.0016666666869777813  0.0037499997421948763  0.9995680905665397  1.0000
  Rh  Rh9       1.0  0.0016666666869777813  0.0037499997421948763  8.226594156830238e-06  1.0000
  Rh  Rh10      1.0  0.008333333296404033  0.008749999511527135  0.9998615144010591  1.0000
  Rh  Rh11      1.0  0.005000000199418216  0.0037499997421948763  0.9997148027596375  1.0000
  Rh  Rh12      1.0  0.0016666666869777813  0.008749999511527135  0.9995680905665397  1.0000
  Rh  Rh13      1.0  0.0016666666869777813  0.0012499999423330643  0.9993480225527313  1.0000
  Rh  Rh14      1.0  0.008333333296404033  0.006249999457252371  0.9992013109113096  1.0000
  Rh  Rh15      1.0  0.005000000199418216  0.0012499999423330643  0.9990545987182119  1.0000
  Rh  Rh16      1.0  0.0016666666869777813  0.006249999457252371  0.9989078868009522  1.0000
  Rh  Rh17      1.0  0.008333333296404033  0.008749999511527135  0.9994213789251182  1.0000
  Rh  Rh18      1.0  0.005000000199418216  0.0037499997421948763  0.9992746667320205  1.0000
  Rh  Rh19      1.0  0.0016666666869777813  0.008749999511527135  0.9991279545389227  1.0000
  Rh  Rh20      1.0  0.008333333296404033  0.0037499997421948763  0.998981242621663  1.0000
  Rh  Rh21      1.0  0.008333333296404033  0.0037499997421948763  0.9994213789251182  1.0000
  Rh  Rh22      1.0  0.005000000199418216  0.008749999511527135  0.9992746667320205  1.0000
  Rh  Rh23      1.0  0.0016666666869777813  0.0037499997421948763  0.9991279545389227  1.0000
  Rh  Rh24      1.0  0.008333333296404033  0.008749999511527135  0.998981242621663  1.0000
