data_image0
_chemical_formula_structural       HSn16
_chemical_formula_sum              "H1 Sn16"
_cell_length_a       4.75570821762085
_cell_length_b       11.649059295654297
_cell_length_c       102.94851684570312
_cell_angle_alpha    90.0
_cell_angle_beta     90.0
_cell_angle_gamma    90.0

_space_group_name_H-M_alt    "P 1"
_space_group_IT_number       1

loop_
  _space_group_symop_operation_xyz
  'x, y, z'

loop_
  _atom_site_type_symbol
  _atom_site_label
  _atom_site_symmetry_multiplicity
  _atom_site_fract_x
  _atom_site_fract_y
  _atom_site_fract_z
  _atom_site_occupancy
  H   H1        1.0  0.0050003900828179395  0.009881623598313015  9.496120698982663e-05  1.0000
  Sn  Sn1       1.0  0.005000014867608909  0.005951708899294011  0.9996771274960226  1.0000
  Sn  Sn2       1.0  0.005002736548702389  0.0023932839246482416  0.9999398936829111  1.0000
  Sn  Sn3       1.0  0.005000014867608909  0.0026183758260591716  0.9991437132424816  1.0000
  Sn  Sn4       1.0  0.005000014867608909  0.00928504229232208  0.9994104202245082  1.0000
  Sn  Sn5       1.0  0.005000014867608909  0.006785042727240873  0.9994104202245082  1.0000
  Sn  Sn6       1.0  0.005000014867608909  0.003451709334212804  0.9996771274960226  1.0000
  Sn  Sn7       1.0  0.0050003900828179395  0.009881623598313015  0.9999752847039071  1.0000
  Sn  Sn8       1.0  0.005000014867608909  0.00011837595117827279  0.9991437132424816  1.0000
  Sn  Sn9       1.0  1.470000071788993e-08  0.005951708899294011  0.9992770668782387  1.0000
  Sn  Sn10      1.0  1.470000071788993e-08  0.0026183758260591716  0.9995437738602654  1.0000
  Sn  Sn11      1.0  0.009999985868721565  0.009352563434901437  0.9998184032503246  1.0000
  Sn  Sn12      1.0  0.009999109322126772  0.0061219092521574425  8.598940629041711e-05  1.0000
  Sn  Sn13      1.0  1.470000071788993e-08  0.003451709334212804  0.9992770668782387  1.0000
  Sn  Sn14      1.0  1.470000071788993e-08  0.00011837595117827279  0.9995437738602654  1.0000
  Sn  Sn15      1.0  0.00999987620248093  0.0068196270858909966  0.9998111805338993  1.0000
  Sn  Sn16      1.0  4.401000098632838e-06  0.00378182644904299  0.0  1.0000
