data_image0
_chemical_formula_structural       Al12Os6H
_chemical_formula_sum              "Al12 Os6 H1"
_cell_length_a       4.759120152725504
_cell_length_b       6.565973223014566
_cell_length_c       99.69993591308594
_cell_angle_alpha    92.14594998701148
_cell_angle_beta     93.2628605698718
_cell_angle_gamma    103.51391227914276

_space_group_name_H-M_alt    "P 1"
_space_group_IT_number       1

loop_
  _space_group_symop_operation_xyz
  'x, y, z'

loop_
  _atom_site_type_symbol
  _atom_site_label
  _atom_site_symmetry_multiplicity
  _atom_site_fract_x
  _atom_site_fract_y
  _atom_site_fract_z
  _atom_site_occupancy
  Al  Al1       1.0  0.0003441845342482567  0.0021848223057157677  0.999708807715615  1.0000
  Al  Al2       1.0  0.007980062902681898  0.0008622621429631882  2.84349660971611e-06  1.0000
  Al  Al3       1.0  0.003990575180054004  0.006386677168491795  0.9998499861325406  1.0000
  Al  Al4       1.0  0.0034510955372725805  0.0025485466336008294  0.9999560001964936  1.0000
  Al  Al5       1.0  0.009655815681747958  0.008331140389011612  0.9998073024320714  1.0000
  Al  Al6       1.0  0.007328297998570836  0.006973003166721453  7.464848552293809e-05  1.0000
  Al  Al7       1.0  0.00891561320903094  0.009327679615520825  0.9992832462042369  1.0000
  Al  Al8       1.0  0.006534660812700004  0.007899108153559813  0.9995669540302794  1.0000
  Al  Al9       1.0  0.00272513680807299  0.0036133937676767793  0.9994251001881599  1.0000
  Al  Al10      1.0  0.0020667072187937237  0.009747916813914728  0.9995210584120917  1.0000
  Al  Al11      1.0  0.008257183355293853  0.005462202428031693  0.999379204370079  1.0000
  Al  Al12      1.0  0.005876230863602552  0.0040336306739118324  0.9996629121951419  1.0000
  Os  Os1       1.0  0.005014969537557015  0.0002520836571914176  0.999756786847533  1.0000
  Os  Os2       1.0  0.0026929303826203326  0.008745976738920122  2.8884315293875386e-05  1.0000
  Os  Os3       1.0  0.008630799650209827  0.0044895357932454  0.9998984183991578  1.0000
  Os  Os4       1.0  0.003586398116238458  0.00739494072961741  0.9993312252366648  1.0000
  Os  Os5       1.0  0.0012054457199075226  0.005966369267656398  0.9996149330627073  1.0000
  Os  Os6       1.0  0.007395921512067989  0.0016806550278527887  0.9994730793190396  1.0000
  H   H1        1.0  0.00104094763475551  0.00351904106734369  7.766085446557001e-05  1.0000
