data_image0
_chemical_formula_structural       HNb6Ga4Nb6Ga4Nb6Ga4Nb6Ga4
_chemical_formula_sum              "H1 Nb24 Ga16"
_cell_length_a       6.952520370483398
_cell_length_b       7.06192684173584
_cell_length_c       104.76260375976562
_cell_angle_alpha    90.0
_cell_angle_beta     90.0
_cell_angle_gamma    90.0

_space_group_name_H-M_alt    "P 1"
_space_group_IT_number       1

loop_
  _space_group_symop_operation_xyz
  'x, y, z'

loop_
  _atom_site_type_symbol
  _atom_site_label
  _atom_site_symmetry_multiplicity
  _atom_site_fract_x
  _atom_site_fract_y
  _atom_site_fract_z
  _atom_site_occupancy
  H   H1        1.0  0.000630250294365924  0.003749999831194386  5.952806201591034e-05  1.0000
  Nb  Nb1       1.0  0.000630250294365924  0.0012500000316510525  0.9992527017278736  1.0000
  Nb  Nb2       1.0  0.005630250358664166  0.0012500000316510525  0.9989208794928996  1.0000
  Nb  Nb3       1.0  0.0023848976062501867  0.003749999831194386  0.9990373255604982  1.0000
  Nb  Nb4       1.0  0.003875603046779903  0.003749999831194386  0.9987055030410494  1.0000
  Nb  Nb5       1.0  0.0073848974026390875  0.003749999831194386  0.9991362556602751  1.0000
  Nb  Nb6       1.0  0.008875603378987485  0.003749999831194386  0.9988044331408262  1.0000
  Ga  Ga1       1.0  0.004369749769932318  0.0012500000316510525  0.9991690496325442  1.0000
  Ga  Ga2       1.0  0.0018907508830977718  0.0012500000316510525  0.9988372268286205  1.0000
  Ga  Ga3       1.0  0.00936974983423056  0.0012500000316510525  0.999004531872704  1.0000
  Ga  Ga4       1.0  0.006890750947396013  0.0012500000316510525  0.9993363543921527  1.0000
  Nb  Nb7       1.0  0.000630250294365924  0.0012500000316510525  0.9999163473357209  1.0000
  Nb  Nb8       1.0  0.005630250358664166  0.0012500000316510525  0.9995845245317972  1.0000
  Nb  Nb9       1.0  0.0023848976062501867  0.003749999831194386  0.9997009708838707  1.0000
  Nb  Nb10      1.0  0.003875603046779903  0.003749999831194386  0.999369148079947  1.0000
  Nb  Nb11      1.0  0.0073848974026390875  0.003749999831194386  0.9997999009836475  1.0000
  Nb  Nb12      1.0  0.008875603378987485  0.003749999831194386  0.9994680781797238  1.0000
  Ga  Ga5       1.0  0.004369749769932318  0.0012500000316510525  0.9998326946714416  1.0000
  Ga  Ga6       1.0  0.0018907508830977718  0.0012500000316510525  0.9995008718675181  1.0000
  Ga  Ga7       1.0  0.00936974983423056  0.0012500000316510525  0.9996681771960764  1.0000
  Ga  Ga8       1.0  0.006890750947396013  0.0012500000316510525  0.0  1.0000
  Nb  Nb13      1.0  0.000630250294365924  0.006249999894496491  0.9992527017278736  1.0000
  Nb  Nb14      1.0  0.005630250358664166  0.006249999894496491  0.9989208794928996  1.0000
  Nb  Nb15      1.0  0.0023848976062501867  0.008749999957798597  0.9990373255604982  1.0000
  Nb  Nb16      1.0  0.003875603046779903  0.008749999957798597  0.9987055030410494  1.0000
  Nb  Nb17      1.0  0.0073848974026390875  0.008749999957798597  0.9991362556602751  1.0000
  Nb  Nb18      1.0  0.008875603378987485  0.008749999957798597  0.9988044331408262  1.0000
  Ga  Ga9       1.0  0.004369749769932318  0.006249999894496491  0.9991690496325442  1.0000
  Ga  Ga10      1.0  0.0018907508830977718  0.006249999894496491  0.9988372268286205  1.0000
  Ga  Ga11      1.0  0.00936974983423056  0.006249999894496491  0.999004531872704  1.0000
  Ga  Ga12      1.0  0.006890750947396013  0.006249999894496491  0.9993363543921527  1.0000
  Nb  Nb19      1.0  0.000630250294365924  0.006249999894496491  0.9999163473357209  1.0000
  Nb  Nb20      1.0  0.005630250358664166  0.006249999894496491  0.9995845245317972  1.0000
  Nb  Nb21      1.0  0.0023848976062501867  0.008749999957798597  0.9997009708838707  1.0000
  Nb  Nb22      1.0  0.003875603046779903  0.008749999957798597  0.999369148079947  1.0000
  Nb  Nb23      1.0  0.0073848974026390875  0.008749999957798597  0.9997999009836475  1.0000
  Nb  Nb24      1.0  0.008875603378987485  0.008749999957798597  0.9994680781797238  1.0000
  Ga  Ga13      1.0  0.004369749769932318  0.006249999894496491  0.9998326946714416  1.0000
  Ga  Ga14      1.0  0.0018907508830977718  0.006249999894496491  0.9995008718675181  1.0000
  Ga  Ga15      1.0  0.00936974983423056  0.006249999894496491  0.9996681771960764  1.0000
  Ga  Ga16      1.0  0.006890750947396013  0.006249999894496491  0.0  1.0000
