data_image0
_chemical_formula_structural       COIn12Na4
_chemical_formula_sum              "C1 O1 In12 Na4"
_cell_length_a       6.7940993309021
_cell_length_b       8.321037826479653
_cell_length_c       101.50294494628906
_cell_angle_alpha    95.05115271991424
_cell_angle_beta     90.0
_cell_angle_gamma    90.0

_space_group_name_H-M_alt    "P 1"
_space_group_IT_number       1

loop_
  _space_group_symop_operation_xyz
  'x, y, z'

loop_
  _atom_site_type_symbol
  _atom_site_label
  _atom_site_symmetry_multiplicity
  _atom_site_fract_x
  _atom_site_fract_y
  _atom_site_fract_z
  _atom_site_occupancy
  C   C1        1.0  0.005000000131595025  0.005195905995566169  0.00010419772024444994  1.0000
  O   O1        1.0  0.005000000131595025  0.005195905995566169  0.00022242054343839915  1.0000
  In  In1       1.0  0.0025000003399538147  0.006750857008100922  0.9995497423790283  1.0000
  In  In2       1.0  0.007549735988796946  0.0035812200309278553  0.9997347032127905  1.0000
  In  In3       1.0  0.0024683473499288577  0.00012414365313885572  0.9999328230534854  1.0000
  In  In4       1.0  0.007500000197392537  0.009875856648548282  0.9993557643835077  1.0000
  In  In5       1.0  4.499999853997847e-10  0.003313356684503546  0.9994527535740128  1.0000
  In  In6       1.0  0.005000000131595025  0.00018835655248031062  0.9996467315659853  1.0000
  In  In7       1.0  0.00999999916656484  0.006894865031705064  0.999825830168242  1.0000
  In  In8       1.0  0.00499999958328242  0.003238437824388392  0.9999981068263027  1.0000
  In  In9       1.0  0.007500000197392537  0.006750857008100922  0.9995497423790283  1.0000
  In  In10      1.0  0.002450264548549405  0.0035812209298094564  0.999734702925668  1.0000
  In  In11      1.0  0.0075316537357300985  0.0001241434565085054  0.999932823639287  1.0000
  In  In12      1.0  0.0025000003399538147  0.009875856648548282  0.9993557643835077  1.0000
  Na  Na1       1.0  4.499999853997847e-10  0.003728982458260828  2.691499820286389e-05  1.0000
  Na  Na2       1.0  0.005000000131595025  0.003313356684503546  0.9994527535740128  1.0000
  Na  Na3       1.0  4.499999853997847e-10  0.00018835655248031062  0.9996467315659853  1.0000
  Na  Na4       1.0  0.005000000131595025  0.0067854077696564265  0.9998676770600049  1.0000
