data_image0
_chemical_formula_structural       COCa3Si6Ca3Si6
_chemical_formula_sum              "C1 O1 Ca6 Si12"
_cell_length_a       4.992148399353027
_cell_length_b       10.3671962779118
_cell_length_c       101.34745788574219
_cell_angle_alpha    79.10660501449412
_cell_angle_beta     90.0
_cell_angle_gamma    90.0

_space_group_name_H-M_alt    "P 1"
_space_group_IT_number       1

loop_
  _space_group_symop_operation_xyz
  'x, y, z'

loop_
  _atom_site_type_symbol
  _atom_site_label
  _atom_site_symmetry_multiplicity
  _atom_site_fract_x
  _atom_site_fract_y
  _atom_site_fract_z
  _atom_site_occupancy
  C   C1        1.0  0.008300143316731769  0.007852496689198322  0.9999487886758816  1.0000
  O   O1        1.0  0.008300143316731769  0.007852496689198322  6.719346440835829e-05  1.0000
  Ca  Ca1       1.0  3.1849449796911746e-05  0.0067049866921557255  0.9992666629346115  1.0000
  Ca  Ca2       1.0  3.1849449796911746e-05  0.0033716533490643057  0.9991377853445613  1.0000
  Ca  Ca3       1.0  3.1849449796911746e-05  3.831990019675201e-05  0.999395540762521  1.0000
  Si  Si1       1.0  0.004156995552302763  0.007816097806519533  0.9994385003880716  1.0000
  Si  Si2       1.0  0.004156995552302763  0.004482764463428112  0.9993096222098997  1.0000
  Si  Si3       1.0  0.004156995552302763  0.0011494310288546307  0.9991807446216181  1.0000
  Si  Si4       1.0  0.005906703883876983  0.005593875577791919  0.9990948260692731  1.0000
  Si  Si5       1.0  0.005906703883876983  0.002260542051736376  0.999352581488725  1.0000
  Si  Si6       1.0  0.005906703883876983  0.008927208920883339  0.9992237036593232  1.0000
  Ca  Ca4       1.0  0.009968150669949664  0.00647443213673899  0.9997086898771619  1.0000
  Ca  Ca5       1.0  3.1849449796911746e-05  0.0033716533490643057  0.9995244189386481  1.0000
  Ca  Ca6       1.0  5.528135076416686e-05  0.009961680023301374  0.9998000054832443  1.0000
  Si  Si7       1.0  0.004959388184986494  0.007844943198334188  0.9998483441169289  1.0000
  Si  Si8       1.0  0.004621209489508079  0.004492699415320434  0.9997026227726074  1.0000
  Si  Si9       1.0  0.005389121451265004  0.0011566238059497848  0.9995767673278335  1.0000
  Si  Si10      1.0  0.005906703883876983  0.005593875577791919  0.9994814596633599  1.0000
  Si  Si11      1.0  0.004480432103396848  0.002201212092526895  0.9997597856333658  1.0000
  Si  Si12      1.0  0.004981653072785997  0.0088321839419772  0.9996275627450822  1.0000
