data_image0
_chemical_formula_structural       COAl12Fe18Si18
_chemical_formula_sum              "C1 O1 Al12 Fe18 Si18"
_cell_length_a       4.628602156756036
_cell_length_b       13.370198582061409
_cell_length_c       102.36671447753906
_cell_angle_alpha    76.15943678403403
_cell_angle_beta     84.71328128240509
_cell_angle_gamma    109.70070597442852

_space_group_name_H-M_alt    "P 1"
_space_group_IT_number       1

loop_
  _space_group_symop_operation_xyz
  'x, y, z'

loop_
  _atom_site_type_symbol
  _atom_site_label
  _atom_site_symmetry_multiplicity
  _atom_site_fract_x
  _atom_site_fract_y
  _atom_site_fract_z
  _atom_site_occupancy
  C   C1        1.0  0.006353509859189242  0.009032218261396385  0.9998425064390071  1.0000
  O   O1        1.0  0.006353509859189242  0.009032218261396385  0.9999597316989491  1.0000
  Al  Al1       1.0  0.0058678359551436274  0.004246550741547618  0.9992080082085316  1.0000
  Al  Al2       1.0  0.005867835713128663  0.0009132171331386197  0.998856692418364  1.0000
  Al  Al3       1.0  0.005875447826486063  0.007583934993663838  0.9995684819795976  1.0000
  Al  Al4       1.0  0.0005334657417392983  0.003059601409649416  0.9987419015639094  1.0000
  Al  Al5       1.0  0.0005334655386136657  0.00972626816285674  0.9994445322881942  1.0000
  Al  Al6       1.0  0.0005334655795162292  0.0063929346317161875  0.9990932170766995  1.0000
  Al  Al7       1.0  0.00947565322822841  0.0036070656526316905  0.9993742345772888  1.0000
  Al  Al8       1.0  0.009475652966050642  0.00027373221807669386  0.9990229187817732  1.0000
  Al  Al9       1.0  0.00944837652770885  0.006882325147516711  0.9997249963249081  1.0000
  Al  Al10      1.0  0.004141282913789123  0.002420116320733488  0.9989081279330876  1.0000
  Al  Al11      1.0  0.004095826273795899  0.009054742322271004  0.9996273361032686  1.0000
  Al  Al12      1.0  0.004141283175991441  0.005753449851874041  0.9992594434344524  1.0000
  Fe  Fe1       1.0  0.003797353057262887  0.0008893144486632108  0.9996115064920931  1.0000
  Fe  Fe2       1.0  0.0036534757422801824  0.007536205965936963  0.9992558032544042  1.0000
  Fe  Fe3       1.0  0.0036534756316303064  0.0042028724347964105  0.998904487752408  1.0000
  Fe  Fe4       1.0  0.006232088789695754  0.005787650102052701  0.9995619129871616  1.0000
  Fe  Fe5       1.0  0.006355643388854884  0.0024637946274846958  0.9992116483885798  1.0000
  Fe  Fe6       1.0  0.006355643509119678  0.009130461689765801  0.9988603327389817  1.0000
  Fe  Fe7       1.0  0.0013557798243453232  0.001248770269602537  0.9987785868420114  1.0000
  Fe  Fe8       1.0  0.0013676181727942404  0.007914509801466432  0.9994809366516357  1.0000
  Fe  Fe9       1.0  0.0013557799002644336  0.0045821038007430905  0.9991299020530193  1.0000
  Fe  Fe10      1.0  0.008653338705410287  0.0054178964836047875  0.9993375490195449  1.0000
  Fe  Fe11      1.0  0.008653338705938143  0.002084563107001125  0.9989862338033899  1.0000
  Fe  Fe12      1.0  0.008847398793734283  0.008809956505752866  0.9996878744767186  1.0000
  Fe  Fe13      1.0  0.00039322976189367156  0.0023864275876626212  0.9995679731870911  1.0000
  Fe  Fe14      1.0  0.00040234833228993235  0.009026557884168522  0.9992201218679189  1.0000
  Fe  Fe15      1.0  0.00040234837319249423  0.005693224353027969  0.9988688066564242  1.0000
  Fe  Fe16      1.0  0.009435003678365686  0.004311987533417551  0.9995886418753815  1.0000
  Fe  Fe17      1.0  0.009606769990467263  0.0009734423229109104  0.9992473292082383  1.0000
  Fe  Fe18      1.0  0.009606770171294117  0.007640109153386681  0.9988960138567635  1.0000
  Si  Si1       1.0  0.0044570831700030174  0.004134277527030752  0.9995084374713143  1.0000
  Si  Si2       1.0  0.004573932710472362  0.0007971452473146087  0.9991573497928161  1.0000
  Si  Si3       1.0  0.0045739331540293904  0.00746381223232727  0.9988060341442854  1.0000
  Si  Si4       1.0  0.0063163812720854  0.004505122794073664  0.999767572953085  1.0000
  Si  Si5       1.0  0.007246664232366352  0.0014152666155987767  0.9994175524283039  1.0000
  Si  Si6       1.0  0.007246664069615426  0.008081933214269211  0.9990662367943702  1.0000
  Si  Si7       1.0  0.005522802034825476  0.0025832366538182964  0.9996473013061734  1.0000
  Si  Si8       1.0  0.005435186501510312  0.009202855423375495  0.9993101018474168  1.0000
  Si  Si9       1.0  0.005435186239307995  0.005869521892234943  0.998958786346052  1.0000
  Si  Si10      1.0  0.0018096500569280934  0.006232391819429226  0.9994799322188674  1.0000
  Si  Si11      1.0  0.0017963692879828413  0.0028751798661050838  0.9991296917888681  1.0000
  Si  Si12      1.0  0.0017963702165273174  0.00954184692838619  0.9987783764270355  1.0000
  Si  Si13      1.0  0.008412495969968105  0.0004748880013048155  0.9996799312011397  1.0000
  Si  Si14      1.0  0.008212749742117265  0.0071248207273165755  0.9993377595634039  1.0000
  Si  Si15      1.0  0.008212749358594442  0.0037914868871022412  0.9989864440722014  1.0000
  Si  Si16      1.0  0.0027624545259165214  0.0019180669155417765  0.9994012148653306  1.0000
  Si  Si17      1.0  0.0027624547370735035  0.008584733823285992  0.9990498992201823  1.0000
  Si  Si18      1.0  0.0021007967266060768  0.005284547837025523  0.9997391895071929  1.0000
