data_image0
_chemical_formula_structural       COPd4Se8Pd4Se8
_chemical_formula_sum              "C1 O1 Pd8 Se16"
_cell_length_a       8.658843994140625
_cell_length_b       5.996519565582275
_cell_length_c       105.0653076171875
_cell_angle_alpha    90.0
_cell_angle_beta     90.0
_cell_angle_gamma    90.0

_space_group_name_H-M_alt    "P 1"
_space_group_IT_number       1

loop_
  _space_group_symop_operation_xyz
  'x, y, z'

loop_
  _atom_site_type_symbol
  _atom_site_label
  _atom_site_symmetry_multiplicity
  _atom_site_fract_x
  _atom_site_fract_y
  _atom_site_fract_z
  _atom_site_occupancy
  C   C1        1.0  0.0021212937602621785  0.007803396318533339  0.00016474127558252345  1.0000
  O   O1        1.0  0.0021212937602621785  0.007803396318533339  0.0002789556150843214  1.0000
  Pd  Pd1       1.0  0.007676288473395322  0.0007735731252226035  0.9998121748630467  1.0000
  Pd  Pd2       1.0  0.0074167077713686805  0.005530379637358434  0.9995248185151244  1.0000
  Pd  Pd3       1.0  0.0026751888841825984  0.005286484344739298  0.999812217411329  1.0000
  Pd  Pd4       1.0  0.0024167074185804742  0.0005303795643624887  0.9995248185151244  1.0000
  Se  Se1       1.0  0.003440739722938797  0.0016199173054228053  0.9997314114157019  1.0000
  Se  Se2       1.0  0.0021212937602621785  0.0028033965173308055  0.9999998865379142  1.0000
  Se  Se3       1.0  0.006721763189887147  0.0065915033575301655  0.99986257301966  1.0000
  Se  Se4       1.0  0.008275614543977084  0.009336819952633722  0.9995867285349703  1.0000
  Se  Se5       1.0  0.00712254608095463  0.0032558999310808947  0.0  1.0000
  Se  Se6       1.0  0.008442200274719102  0.004438771878853938  0.9997313802136283  1.0000
  Se  Se7       1.0  0.0032756144063036375  0.00672393912328568  0.9995867285349703  1.0000
  Se  Se8       1.0  0.0017202365978754674  0.00946962038749125  0.9998628578094956  1.0000
  Pd  Pd5       1.0  0.0074167077713686805  0.0005303795643624887  0.9992466957117504  1.0000
  Pd  Pd6       1.0  0.0074167077713686805  0.005530379637358434  0.9989685726247212  1.0000
  Pd  Pd7       1.0  0.0024167074185804742  0.005530379637358434  0.9992466957117504  1.0000
  Pd  Pd8       1.0  0.0024167074185804742  0.0005303795643624887  0.9989685726247212  1.0000
  Se  Se9       1.0  0.0032756144063036375  0.0017239393220831462  0.9991847856919045  1.0000
  Se  Se10      1.0  0.0015578005384146913  0.004336819840810146  0.9994629084952785  1.0000
  Se  Se11      1.0  0.0065578009987602775  0.00672393912328568  0.9993086057315963  1.0000
  Se  Se12      1.0  0.008275614543977084  0.009336819952633722  0.9990304826445671  1.0000
  Se  Se13      1.0  0.0065578009987602775  0.0017239393220831462  0.9994629084952785  1.0000
  Se  Se14      1.0  0.008275614543977084  0.004336819840810146  0.9991847856919045  1.0000
  Se  Se15      1.0  0.0032756144063036375  0.00672393912328568  0.9990304826445671  1.0000
  Se  Se16      1.0  0.0015578005384146913  0.009336819952633722  0.9993086057315963  1.0000
