data_image0
_chemical_formula_structural       COCa12Si24
_chemical_formula_sum              "C1 O1 Ca12 Si24"
_cell_length_a       9.636889144052436
_cell_length_b       7.489422522810027
_cell_length_c       104.74629974365234
_cell_angle_alpha    83.85398074396092
_cell_angle_beta     86.82016996652418
_cell_angle_gamma    112.7070735082817

_space_group_name_H-M_alt    "P 1"
_space_group_IT_number       1

loop_
  _space_group_symop_operation_xyz
  'x, y, z'

loop_
  _atom_site_type_symbol
  _atom_site_label
  _atom_site_symmetry_multiplicity
  _atom_site_fract_x
  _atom_site_fract_y
  _atom_site_fract_z
  _atom_site_occupancy
  C   C1        1.0  0.003705321008486128  0.002983371258753912  0.9999731716034261  1.0000
  O   O1        1.0  0.003705321008486128  0.002983371258753912  8.773435502745623e-05  1.0000
  Ca  Ca1       1.0  0.0022456225415239256  0.00922657993524805  0.9996959326437318  1.0000
  Ca  Ca2       1.0  0.00834291504993249  0.009239404146147448  0.9995186149440468  1.0000
  Ca  Ca3       1.0  0.006181140605467309  0.009354197812940444  0.999884986420308  1.0000
  Ca  Ca4       1.0  0.008759581840209559  0.004239404285505839  0.9996568310072795  1.0000
  Ca  Ca5       1.0  0.00487069306182088  0.004239404352304973  0.9994725429348048  1.0000
  Ca  Ca6       1.0  0.002638639782087175  0.004108394405717753  0.9998431844663991  1.0000
  Ca  Ca7       1.0  0.0005651376511797934  0.009239404172763118  0.9991500385145908  1.0000
  Ca  Ca8       1.0  0.006676248310223312  0.00923940410888157  0.9989657504346068  1.0000
  Ca  Ca9       1.0  0.00445402627154381  0.00923940436928482  0.9993343268703754  1.0000
  Ca  Ca10      1.0  0.00709291467910128  0.004239404064512164  0.9991039665013964  1.0000
  Ca  Ca11      1.0  0.0032040265328112535  0.0042394044225368185  0.9989196784234666  1.0000
  Ca  Ca12      1.0  0.0009818042834322  0.004239404575442345  0.9992882548611334  1.0000
  Si  Si1       1.0  0.009759154838184902  0.0008705165940754075  0.9997865436815235  1.0000
  Si  Si2       1.0  0.005805559806255122  0.0009353321422186289  0.9995951320332028  1.0000
  Si  Si3       1.0  0.0035987925796486103  0.0006458022447551118  0.9999444304960503  1.0000
  Si  Si4       1.0  0.0002408444938975207  0.005893739669812583  0.999894786471763  1.0000
  Si  Si5       1.0  0.0062426041929170215  0.00599288381014381  0.9997402078504787  1.0000
  Si  Si6       1.0  0.0023333378181435117  0.005935332383395919  0.9995490600066216  1.0000
  Si  Si7       1.0  0.008657333562053034  0.007428231903163495  0.9998253442535272  1.0000
  Si  Si8       1.0  0.004769159476541676  0.007543476598597124  0.9996263859498081  1.0000
  Si  Si9       1.0  0.0008802707508278841  0.007543476848608927  0.9994420978756622  1.0000
  Si  Si10      1.0  0.008972237525939305  0.0025286220315291655  0.9999348546977717  1.0000
  Si  Si11      1.0  0.005185556992792444  0.002564622157281645  0.999768664919554  1.0000
  Si  Si12      1.0  0.0012969373830802908  0.002543476500864604  0.99958031394343  1.0000
  Si  Si13      1.0  0.008027781844934623  0.0009353320068859703  0.9992265558809958  1.0000
  Si  Si14      1.0  0.0041388930665459435  0.0009353321049527515  0.9990422675237627  1.0000
  Si  Si15      1.0  0.0019166710278664416  0.0009353322168346738  0.9994108439606683  1.0000
  Si  Si16      1.0  0.008444448635211694  0.005935332149996479  0.9993647719271287  1.0000
  Si  Si17      1.0  0.004555559856823013  0.0059353323731338534  0.9991804835689382  1.0000
  Si  Si18      1.0  0.0006666711837841094  0.005935332399878903  0.9989961954962324  1.0000
  Si  Si19      1.0  0.006991381515221178  0.007543476338193874  0.9992578097985586  1.0000
  Si  Si20      1.0  0.0031024929475320494  0.00754347666882897  0.99907352143847  1.0000
  Si  Si21      1.0  0.009213603975299783  0.007543476542927253  0.9988892333570788  1.0000
  Si  Si22      1.0  0.0074080478840991455  0.0025434761062185797  0.9993960258667844  1.0000
  Si  Si23      1.0  0.0035191595271095682  0.002543476419280807  0.999211737505755  1.0000
  Si  Si24      1.0  0.009630269922778647  0.0025434760959565134  0.999027449429101  1.0000
