data_image0
_chemical_formula_structural       COCa12Ge12Au12
_chemical_formula_sum              "C1 O1 Ca12 Ge12 Au12"
_cell_length_a       22.007579803466797
_cell_length_b       4.608026504516602
_cell_length_c       101.74519348144531
_cell_angle_alpha    90.0
_cell_angle_beta     90.0
_cell_angle_gamma    90.0

_space_group_name_H-M_alt    "P 1"
_space_group_IT_number       1

loop_
  _space_group_symop_operation_xyz
  'x, y, z'

loop_
  _atom_site_type_symbol
  _atom_site_label
  _atom_site_symmetry_multiplicity
  _atom_site_fract_x
  _atom_site_fract_y
  _atom_site_fract_z
  _atom_site_occupancy
  C   C1        1.0  0.009525144523981415  0.007499996184186399  0.00013200225915731812  1.0000
  O   O1        1.0  0.009525144523981415  0.007499996184186399  0.00024994360167625155  1.0000
  Ca  Ca1       1.0  0.00036849995356501514  0.007499998609491653  0.9999412103479574  1.0000
  Ca  Ca2       1.0  0.00034079744455643853  0.002500001220736978  0.9996204542548013  1.0000
  Ca  Ca3       1.0  0.005340797512265661  0.002500001220736978  0.999568028394836  1.0000
  Ca  Ca4       1.0  0.005324609252784853  0.007500001843231993  0.999979190405765  1.0000
  Ca  Ca5       1.0  0.008681788916661106  0.007499994567316229  0.9999823257288984  1.0000
  Ca  Ca6       1.0  0.0019960035579300608  0.002500001220736978  0.9995620017437271  1.0000
  Ca  Ca7       1.0  0.006996003287093171  0.002500001220736978  0.9996264811988216  1.0000
  Ca  Ca8       1.0  0.0036618410348872583  0.0075000010347969085  0.9999364651840222  1.0000
  Ca  Ca9       1.0  0.007006431184462889  0.007500001843231993  0.9999332384725463  1.0000
  Ca  Ca10      1.0  0.003664223383883775  0.002500001220736978  0.999627360225795  1.0000
  Ca  Ca11      1.0  0.008664223113046885  0.002500001220736978  0.9995611224238423  1.0000
  Ca  Ca12      1.0  0.0020024823148927355  0.007500000226361823  0.0  1.0000
  Ge  Ge1       1.0  0.009368137670291403  0.0025000159746772777  0.9998628717921473  1.0000
  Ge  Ge2       1.0  0.004298545386521076  0.002500001220736978  0.9993320209295613  1.0000
  Ge  Ge3       1.0  0.006370907681670886  0.0075000010347969085  0.999466453474223  1.0000
  Ge  Ge4       1.0  0.002635279844383623  0.0075000010347969085  0.999722604746225  1.0000
  Ge  Ge5       1.0  0.00796183539877157  0.0025000103156316835  0.9998684171899016  1.0000
  Ge  Ge6       1.0  0.0030462650076137666  0.002500001220736978  0.9993344310041822  1.0000
  Ge  Ge7       1.0  0.0013709076139616634  0.0075000010347969085  0.9997220294683257  1.0000
  Ge  Ge8       1.0  0.007623188399124309  0.0075000010347969085  0.9994640433996022  1.0000
  Ge  Ge9       1.0  0.004643968725164257  0.0075000010347969085  0.9997190423583374  1.0000
  Ge  Ge10      1.0  0.006125741388903575  0.002499997582779096  0.9998729497001937  1.0000
  Ge  Ge11      1.0  0.001025484444591539  0.002500001220736978  0.9993290341124844  1.0000
  Ge  Ge12      1.0  0.00964396879287348  0.0075000010347969085  0.9994694402912999  1.0000
  Au  Au1       1.0  0.001010250546603012  0.0075000010347969085  0.9994648243012719  1.0000
  Au  Au2       1.0  0.009659202690862007  0.002500001220736978  0.9993336501025124  1.0000
  Au  Au3       1.0  0.004580722894535681  0.002500001018628207  0.9998649086977032  1.0000
  Au  Au4       1.0  0.006016804020692805  0.007500001843231993  0.9997174383757628  1.0000
  Au  Au5       1.0  0.002951613608275389  0.0075000010347969085  0.9994675243581332  1.0000
  Au  Au6       1.0  0.0027174336446910336  0.0024999998059755794  0.9998700563218388  1.0000
  Au  Au7       1.0  0.007951613337438499  0.0075000010347969085  0.9997209585844153  1.0000
  Au  Au8       1.0  0.004392619226190837  0.0075000010347969085  0.9994644774942287  1.0000
  Au  Au9       1.0  0.006276833842001125  0.002500001220736978  0.9993339969095556  1.0000
  Au  Au10      1.0  0.001268413116825601  0.0024999987954317233  0.9998743615329201  1.0000
  Au  Au11      1.0  0.00943970631855965  0.007499995375751314  0.9997207324568501  1.0000
  Au  Au12      1.0  0.007717839121370461  0.002500001220736978  0.9993309500456511  1.0000
