data_image0
_chemical_formula_structural       COZn12Cu6Au6
_chemical_formula_sum              "C1 O1 Zn12 Cu6 Au6"
_cell_length_a       4.552651882171631
_cell_length_b       11.037941895580317
_cell_length_c       99.44000244140625
_cell_angle_alpha    99.56334238148116
_cell_angle_beta     90.0
_cell_angle_gamma    90.0

_space_group_name_H-M_alt    "P 1"
_space_group_IT_number       1

loop_
  _space_group_symop_operation_xyz
  'x, y, z'

loop_
  _atom_site_type_symbol
  _atom_site_label
  _atom_site_symmetry_multiplicity
  _atom_site_fract_x
  _atom_site_fract_y
  _atom_site_fract_z
  _atom_site_occupancy
  C   C1        1.0  0.007499993552046519  0.0012590137504139918  0.00019497822376527132  1.0000
  O   O1        1.0  0.007499993552046519  0.0012590137504139918  0.0003156536503484627  1.0000
  Zn  Zn1       1.0  0.007500003371265018  0.0035531392405506925  2.688220723726505e-05  1.0000
  Zn  Zn2       1.0  0.007499994370314727  0.0001956241018883611  0.999541055424752  1.0000
  Zn  Zn3       1.0  0.007499993552046519  0.006900748810375992  0.9997834756342632  1.0000
  Zn  Zn4       1.0  0.007499994370314727  0.005193080277935245  0.9995406791348964  1.0000
  Zn  Zn5       1.0  0.007499993552046519  0.0018706035277356971  0.9997877616949744  1.0000
  Zn  Zn6       1.0  0.007499996006851144  0.008555359928618179  2.888080449791987e-05  1.0000
  Zn  Zn7       1.0  0.0024999943048532704  0.0030701601211791186  0.9996983706355135  1.0000
  Zn  Zn8       1.0  0.002499996555090843  0.00980437546601456  0.9999961373372314  1.0000
  Zn  Zn9       1.0  0.0024999943048532704  0.00640349320352537  0.9994516558153668  1.0000
  Zn  Zn10      1.0  0.0024999943048532704  0.0014009495977598883  0.9994512792418214  1.0000
  Zn  Zn11      1.0  0.0024999943048532704  0.00806761627583506  0.9996979940455618  1.0000
  Zn  Zn12      1.0  0.0025000059651752384  0.00480776125893368  0.9999694124581265  1.0000
  Cu  Cu1       1.0  0.0024999943048532704  0.0039183685689990685  0.9994502721930819  1.0000
  Cu  Cu2       1.0  0.0024999943048532704  0.0005850352727433724  0.9996969873089854  1.0000
  Cu  Cu3       1.0  0.0025000073971446026  0.0073015726704529025  0.9999597351518295  1.0000
  Cu  Cu4       1.0  0.0074999951885829355  0.00436979553186773  0.9997823452703932  1.0000
  Cu  Cu5       1.0  0.007499993552046519  0.000994639559368174  1.8342619615721404e-05  1.0000
  Cu  Cu6       1.0  0.007499994370314727  0.007678205254716659  0.9995420624637914  1.0000
  Au  Au1       1.0  0.007499994370314727  0.002705202029906854  0.9995400641159443  1.0000
  Au  Au2       1.0  0.007499993552046519  0.009387737366241227  0.9997786919059299  1.0000
  Au  Au3       1.0  0.007500005826069643  0.00606598790815428  2.3231424165835907e-05  1.0000
  Au  Au4       1.0  0.0024999943048532704  0.005558038198079954  0.9996989853516083  1.0000
  Au  Au5       1.0  0.0025000043286388216  0.0022327715553364636  0.9999678212478772  1.0000
  Au  Au6       1.0  0.0024999943048532704  0.008891371622681317  0.9994522705377733  1.0000
