data_image0
_chemical_formula_structural       COCu6Sn6Cu6Sn6
_chemical_formula_sum              "C1 O1 Cu12 Sn12"
_cell_length_a       5.161495685577393
_cell_length_b       11.187454006840927
_cell_length_c       99.5992202758789
_cell_angle_alpha    79.10660619304866
_cell_angle_beta     90.0
_cell_angle_gamma    90.0

_space_group_name_H-M_alt    "P 1"
_space_group_IT_number       1

loop_
  _space_group_symop_operation_xyz
  'x, y, z'

loop_
  _atom_site_type_symbol
  _atom_site_label
  _atom_site_symmetry_multiplicity
  _atom_site_fract_x
  _atom_site_fract_y
  _atom_site_fract_z
  _atom_site_occupancy
  C   C1        1.0  0.006239812695639433  0.008022257574561976  0.9999750708012832  1.0000
  O   O1        1.0  0.006239812695639433  0.008022257574561976  9.555391636636994e-05  1.0000
  Cu  Cu1       1.0  4.127600003318373e-06  0.007222222258392739  0.9993968545218576  1.0000
  Cu  Cu2       1.0  4.127600003318373e-06  0.0038888888301117992  0.9992553386480844  1.0000
  Cu  Cu3       1.0  4.127600003318373e-06  0.0005555555289928323  0.9995383703511024  1.0000
  Cu  Cu4       1.0  0.005004127493743095  0.007222222258392739  0.9993968545218576  1.0000
  Cu  Cu5       1.0  0.005004127493743095  0.0038888888301117992  0.9992553386480844  1.0000
  Cu  Cu6       1.0  0.005004127493743095  0.0005555555289928323  0.9995383703511024  1.0000
  Sn  Sn1       1.0  0.0075041274071335415  0.006111110776533831  0.9992081667113012  1.0000
  Sn  Sn2       1.0  0.0075041274071335415  0.0027777776873514856  0.9994911984098204  1.0000
  Sn  Sn3       1.0  0.0075041274071335415  0.009444443865716174  0.9993496825922726  1.0000
  Sn  Sn4       1.0  0.0025041275803526484  0.008333333062054457  0.9991609947673198  1.0000
  Sn  Sn5       1.0  0.0025041275803526484  0.004999999633773517  0.9994440264730371  1.0000
  Sn  Sn6       1.0  0.0025041275803526484  0.0016666665445911723  0.9993025105920658  1.0000
  Cu  Cu7       1.0  3.144830096263747e-05  0.007202250029319821  0.9998169098345275  1.0000
  Cu  Cu8       1.0  0.009995872708345864  0.003921586073076366  0.9996824758180946  1.0000
  Cu  Cu9       1.0  0.009929895715861909  0.0009360317403826864  0.999936309376666  1.0000
  Cu  Cu10      1.0  0.00497513783275275  0.007202969596539298  0.9998168742128786  1.0000
  Cu  Cu11      1.0  0.005013972112971007  0.0039212256112694365  0.999682456539732  1.0000
  Cu  Cu12      1.0  0.005076857144401268  0.0009365405578251108  0.9999363644047461  1.0000
  Sn  Sn7       1.0  0.0075041274071335415  0.006111110776533831  0.9996327142907917  1.0000
  Sn  Sn8       1.0  0.007507813365373787  0.003122956998782327  0.999933707823217  1.0000
  Sn  Sn9       1.0  0.007504488280272395  0.00943745165267866  0.9997790811780591  1.0000
  Sn  Sn10      1.0  0.0025041275803526484  0.008333333062054457  0.9995855423468104  1.0000
  Sn  Sn11      1.0  0.0025061692201357095  0.004947114834127942  0.9998795745893715  1.0000
  Sn  Sn12      1.0  0.0025039639243841783  0.0017584603648214754  0.9997119611970301  1.0000
