data_image0
_chemical_formula_structural       COAs8Ru4As8Ru4As8Ru4
_chemical_formula_sum              "C1 O1 As24 Ru12"
_cell_length_a       6.28868689734592
_cell_length_b       12.906078040971922
_cell_length_c       103.29071044921875
_cell_angle_alpha    103.56193524378934
_cell_angle_beta     118.76704648051668
_cell_angle_gamma    83.52029527691172

_space_group_name_H-M_alt    "P 1"
_space_group_IT_number       1

loop_
  _space_group_symop_operation_xyz
  'x, y, z'

loop_
  _atom_site_type_symbol
  _atom_site_label
  _atom_site_symmetry_multiplicity
  _atom_site_fract_x
  _atom_site_fract_y
  _atom_site_fract_z
  _atom_site_occupancy
  C   C1        1.0  0.0013788998712910474  0.00022602066198839618  0.0004690510494860238  1.0000
  O   O1        1.0  0.0013788998712910474  0.00022602066198839618  0.0005852276607404297  1.0000
  As  As1       1.0  0.0033912711262516137  0.004386158288829685  0.9994932198890522  1.0000
  As  As2       1.0  0.0033912711262516137  0.009386158692648179  0.9996397203930907  1.0000
  As  As3       1.0  0.006809687075176227  0.0007330035332265277  0.9994863420189084  1.0000
  As  As4       1.0  0.006809687075176227  0.005733003417425637  0.9996328425077221  1.0000
  As  As5       1.0  0.0018096871697857462  0.0018861582353831199  0.99952012975263  1.0000
  As  As6       1.0  0.0018096871697857462  0.00688615819381357  0.9996666302436188  1.0000
  As  As7       1.0  0.008391271031642094  0.0032330035124417526  0.9994594324416841  1.0000
  As  As8       1.0  0.008391271031642094  0.008233003916260246  0.9996059329457226  1.0000
  Ru  Ru1       1.0  0.00510047893176835  0.0025595809481437767  0.9994897809501176  1.0000
  Ru  Ru2       1.0  0.00510047893176835  0.007559581351962269  0.9996362814541563  1.0000
  Ru  Ru3       1.0  0.00010047919532343956  5.958085294208234e-05  0.9997095319588067  1.0000
  Ru  Ru4       1.0  0.00010047919532343956  0.005059580853127661  0.9995630313858175  1.0000
  As  As9       1.0  0.0033912711262516137  0.004386158288829685  0.9997862209542535  1.0000
  As  As10      1.0  0.0033912711262516137  0.009386158692648179  0.999932721458292  1.0000
  As  As11      1.0  0.006809687075176227  0.0007330035332265277  0.9997793430841098  1.0000
  As  As12      1.0  0.006809687075176227  0.005733003417425637  0.9999258435729235  1.0000
  As  As13      1.0  0.0018096871697857462  0.0018861582353831199  0.9998131308178314  1.0000
  As  As14      1.0  0.0018096871697857462  0.00688615819381357  0.9999596313088202  1.0000
  As  As15      1.0  0.008391271031642094  0.0032330035124417526  0.9997524335068855  1.0000
  As  As16      1.0  0.008391271031642094  0.008233003916260246  0.999898934010924  1.0000
  Ru  Ru5       1.0  0.00510047893176835  0.0025595809481437767  0.999782782015319  1.0000
  Ru  Ru6       1.0  0.00510047893176835  0.007559581351962269  0.9999292825193576  1.0000
  Ru  Ru7       1.0  0.00010047919532343956  5.958085294208234e-05  2.5327354795125853e-06  1.0000
  Ru  Ru8       1.0  0.00010047919532343956  0.005059580853127661  0.9998560324510188  1.0000
  As  As17      1.0  0.0033193351160866373  0.004375784013603116  9.319932059729266e-05  1.0000
  As  As18      1.0  0.002988761683897205  0.009262600923267798  0.00021472982588976728  1.0000
  As  As19      1.0  0.0067840695204588386  0.0007382944462538681  7.504039931925518e-05  1.0000
  As  As20      1.0  0.0067645698227335495  0.005745356106339909  0.00021690565570384906  1.0000
  As  As21      1.0  0.0018354030508250557  0.0019319904465761248  0.00010777843311662232  1.0000
  As  As22      1.0  0.0019276507111262353  0.006831155739737329  0.00025663389123891365  1.0000
  As  As23      1.0  0.008370610339957629  0.0032509752169084904  6.141932486144009e-05  1.0000
  As  As24      1.0  0.008416656793037016  0.008163016826860037  0.00020049131392692576  1.0000
  Ru  Ru9       1.0  0.004911521420762939  0.0025246260037407467  6.297202882756128e-05  1.0000
  Ru  Ru10      1.0  0.004929079933885355  0.007540825170688851  0.00021138087645089428  1.0000
  Ru  Ru11      1.0  0.009899520446511953  0.00994041917062637  0.00027352518285442696  1.0000
  Ru  Ru12      1.0  0.00989609085143464  0.005127776888743654  0.0001406538905787382  1.0000
