data_image0
_chemical_formula_structural       HIn2Ni6In2Ni6
_chemical_formula_sum              "H1 In4 Ni12"
_cell_length_a       5.401721477508545
_cell_length_b       5.4017215493878235
_cell_length_c       99.999267578125
_cell_angle_alpha    90.0
_cell_angle_beta     90.0
_cell_angle_gamma    119.99999955981674

_space_group_name_H-M_alt    "P 1"
_space_group_IT_number       1

loop_
  _space_group_symop_operation_xyz
  'x, y, z'

loop_
  _atom_site_type_symbol
  _atom_site_label
  _atom_site_symmetry_multiplicity
  _atom_site_fract_x
  _atom_site_fract_y
  _atom_site_fract_z
  _atom_site_occupancy
  H   H1        1.0  0.0007841383444042788  0.0007842991970889766  0.0001231685361236166  1.0000
  In  In1       1.0  0.004117238286910308  0.007450410807064976  0.9993652833703769  1.0000
  In  In2       1.0  0.00745057180756675  0.004117077627690271  0.9995795654259324  1.0000
  Ni  Ni1       1.0  0.009215861640163563  0.007647657292883895  0.9993652833703769  1.0000
  Ni  Ni2       1.0  0.002351948225859891  0.009215700440577354  0.9995795654259324  1.0000
  Ni  Ni3       1.0  0.007647817981473103  0.009215700440577354  0.9995795654259324  1.0000
  Ni  Ni4       1.0  0.003919991913919522  0.0023517875960090253  0.9993652833703769  1.0000
  Ni  Ni5       1.0  0.009215862014357092  0.0023517875960090253  0.9993652833703769  1.0000
  Ni  Ni6       1.0  0.0023519485405195852  0.003919831141871351  0.9995795654259324  1.0000
  In  In3       1.0  0.00411750217578851  0.007450730138496  0.9997887786653711  1.0000
  In  In4       1.0  0.00745028393947854  0.00411720464355872  2.593059458443299e-05  1.0000
  Ni  Ni7       1.0  0.009212019331937764  0.007639169925323142  0.9997949036835292  1.0000
  Ni  Ni8       1.0  0.0023873884600017527  0.009180053974624831  0.9999999463554268  1.0000
  Ni  Ni9       1.0  0.007577290651529875  0.009180695822837814  0.9999999409909694  1.0000
  Ni  Ni10      1.0  0.003931552131294773  0.002357686467767918  0.9997949507715435  1.0000
  Ni  Ni11      1.0  0.009211785167584816  0.0023569096403091533  0.9997949293137142  1.0000
  Ni  Ni12      1.0  0.0023877359508483434  0.003992147765932462  0.0  1.0000
