data_image0
_chemical_formula_structural       Al8Au16Al8Au16H
_chemical_formula_sum              "Al16 Au32 H1"
_cell_length_a       4.765717029571533
_cell_length_b       18.475169286733394
_cell_length_c       103.36001586914062
_cell_angle_alpha    97.41043918041964
_cell_angle_beta     90.0
_cell_angle_gamma    82.58956081958037

_space_group_name_H-M_alt    "P 1"
_space_group_IT_number       1

loop_
  _space_group_symop_operation_xyz
  'x, y, z'

loop_
  _atom_site_type_symbol
  _atom_site_label
  _atom_site_symmetry_multiplicity
  _atom_site_fract_x
  _atom_site_fract_y
  _atom_site_fract_z
  _atom_site_occupancy
  Al  Al1       1.0  0.0076931512547897835  0.0051696628713479974  0.9994146173702566  1.0000
  Al  Al2       1.0  0.0001931517011755958  0.00016966294004912264  0.9992993475310443  1.0000
  Al  Al3       1.0  0.0051931517050840224  0.00016966294004912264  0.9995298873164373  1.0000
  Al  Al4       1.0  0.0026931517394345843  0.0051696628713479974  0.9996451571556497  1.0000
  Al  Al5       1.0  0.006443151509086485  0.007669662362754593  0.9997027920643227  1.0000
  Al  Al6       1.0  0.00894315130811006  0.0026696627647074447  0.9995875222327931  1.0000
  Al  Al7       1.0  0.0039431517927548615  0.0026696627647074447  0.9993569824474001  1.0000
  Al  Al8       1.0  0.0014431519937312867  0.007669662362754593  0.9994722522789297  1.0000
  Au  Au1       1.0  0.007306847904194812  0.005942269572537941  0.9996629688059385  1.0000
  Au  Au2       1.0  0.009806847857026875  0.000942269666873814  0.9995476989673172  1.0000
  Au  Au3       1.0  0.004806848341671676  0.000942269666873814  0.9993171591819241  1.0000
  Au  Au4       1.0  0.0023068483888396126  0.005942269572537941  0.9994324290205455  1.0000
  Au  Au5       1.0  0.006829454859681456  0.0068970556615646494  0.9994544406286409  1.0000
  Au  Au6       1.0  0.00932945465870503  0.0018970560635175016  0.9993391707971112  1.0000
  Au  Au7       1.0  0.004329455143349833  0.0018970560635175016  0.9995697105825043  1.0000
  Au  Au8       1.0  0.0018294553443262583  0.0068970556615646494  0.9996849804140339  1.0000
  Au  Au9       1.0  0.006056848158491513  0.008442269063944536  0.9994900639292185  1.0000
  Au  Au10      1.0  0.008556847854976095  0.0034422696709753738  0.9993747941024168  1.0000
  Au  Au11      1.0  0.0035568483396208966  0.0034422696709753738  0.9996053338878098  1.0000
  Au  Au12      1.0  0.001056848643136315  0.008442269063944536  0.9997206037146116  1.0000
  Au  Au13      1.0  0.005579454908900173  0.009397055563127216  0.9992815357613765  1.0000
  Au  Au14      1.0  0.008079454605384754  0.004397056170158054  0.9996273455053608  1.0000
  Au  Au15      1.0  0.003079455090029556  0.004397056170158054  0.9993968057199678  1.0000
  Au  Au16      1.0  0.0005794553935449748  0.009397055563127216  0.9995120755467696  1.0000
  Al  Al9       1.0  0.0076931512547897835  0.0051696628713479974  0.9998756966527076  1.0000
  Al  Al10      1.0  0.0001931517011755958  0.00016966294004912264  0.9997604268134953  1.0000
  Al  Al11      1.0  0.005172073971779146  0.0002141470467628207  0.999993021778775  1.0000
  Al  Al12      1.0  0.002746518115109787  0.005065438547689287  0.00011090276595334193  1.0000
  Al  Al13      1.0  0.006585485963157231  0.007383031424851131  0.00015963722928554643  1.0000
  Al  Al14      1.0  0.008946829580136066  0.0026699385945980056  5.036354675203067e-05  1.0000
  Al  Al15      1.0  0.0039431517927548615  0.0026696627647074447  0.999818061729851  1.0000
  Al  Al16      1.0  0.0014488462053049121  0.0076572108477841235  0.9999218726720631  1.0000
  Au  Au17      1.0  0.007344777941885962  0.005858788066805364  0.00013040189799171716  1.0000
  Au  Au18      1.0  0.009788044664946738  0.0009864312628204911  2.0416597201811457e-05  1.0000
  Au  Au19      1.0  0.004806848341671676  0.000942269666873814  0.9997782384643751  1.0000
  Au  Au20      1.0  0.002296845373339558  0.00596110229410669  0.9999015043487685  1.0000
  Au  Au21      1.0  0.0068186092826969845  0.006918191819067063  0.999908022607302  1.0000
  Au  Au22      1.0  0.00932945465870503  0.0018970560635175016  0.9998002500795622  1.0000
  Au  Au23      1.0  0.004337724464459452  0.0018914172392269022  4.0480273468693815e-05  1.0000
  Au  Au24      1.0  0.0019269308591513257  0.006692696269279036  0.0001858134251374341  1.0000
  Au  Au25      1.0  0.006018342459547595  0.008527541310646909  0.9999933727678987  1.0000
  Au  Au26      1.0  0.008556847854976095  0.0034422696709753738  0.9998358733848678  1.0000
  Au  Au27      1.0  0.0035627733691201958  0.0034362165891539693  7.921842783460978e-05  1.0000
  Au  Au28      1.0  0.0011862647460962766  0.008199904619377358  0.00015733962377396566  1.0000
  Au  Au29      1.0  0.005579454908900173  0.009397055563127216  0.9997426153321626  1.0000
  Au  Au30      1.0  0.00812322013074253  0.004314810874522355  0.00010382333610680596  1.0000
  Au  Au31      1.0  0.003079455090029556  0.004397056170158054  0.9998578850024188  1.0000
  Au  Au32      1.0  0.0005563932951766456  0.009446526935736683  0.9999910141641604  1.0000
  H   H1        1.0  0.002864233412688684  0.009830336948183374  0.00013714174106922158  1.0000
