data_image0
_chemical_formula_structural       COV12Ni4V12Ni4
_chemical_formula_sum              "C1 O1 V24 Ni8"
_cell_length_a       4.679924964904785
_cell_length_b       6.618412971496582
_cell_length_c       109.71047973632812
_cell_angle_alpha    90.0
_cell_angle_beta     90.0
_cell_angle_gamma    90.0

_space_group_name_H-M_alt    "P 1"
_space_group_IT_number       1

loop_
  _space_group_symop_operation_xyz
  'x, y, z'

loop_
  _atom_site_type_symbol
  _atom_site_label
  _atom_site_symmetry_multiplicity
  _atom_site_fract_x
  _atom_site_fract_y
  _atom_site_fract_z
  _atom_site_occupancy
  C   C1        1.0  0.002499966981299329  0.0012469957616699297  0.0001270783289772748  1.0000
  O   O1        1.0  0.002499966981299329  0.0012469957616699297  0.00023645734497953125  1.0000
  V   V1        1.0  2.0599999641393083e-08  0.006875000090058817  0.9988841522518264  1.0000
  V   V2        1.0  2.0599999641393083e-08  0.001874999960599267  0.9991857832503082  1.0000
  V   V3        1.0  2.0599999641393083e-08  0.0043749999549705905  0.9993365984779039  1.0000
  V   V4        1.0  2.0599999641393083e-08  0.009375000225147043  0.9990349677510673  1.0000
  V   V5        1.0  0.005000020330222159  0.006875000090058817  0.9990349677510673  1.0000
  V   V6        1.0  0.005000020330222159  0.001874999960599267  0.9993365984779039  1.0000
  V   V7        1.0  0.005000020330222159  0.009375000225147043  0.9988841522518264  1.0000
  V   V8        1.0  0.005000020330222159  0.0043749999549705905  0.9991857832503082  1.0000
  V   V9        1.0  0.007500020346142458  0.0031249998874264776  0.9989595601372694  1.0000
  V   V10       1.0  0.007500020346142458  0.008125000157602931  0.999261190864106  1.0000
  V   V11       1.0  0.0025000205133056  0.0031249998874264776  0.9989595601372694  1.0000
  V   V12       1.0  0.0025000205133056  0.008125000157602931  0.999261190864106  1.0000
  Ni  Ni1       1.0  0.005000020330222159  0.005625000022514704  0.9994120060917017  1.0000
  Ni  Ni2       1.0  0.005000020330222159  0.0006250000337720567  0.9991103756365103  1.0000
  Ni  Ni3       1.0  2.0599999641393083e-08  0.005625000022514704  0.9991103756365103  1.0000
  Ni  Ni4       1.0  2.0599999641393083e-08  0.0006250000337720567  0.9994120060917017  1.0000
  V   V13       1.0  2.0599999641393083e-08  0.006875000090058817  0.99948741424879  1.0000
  V   V14       1.0  0.009999978571277192  0.001973361497787651  0.9997901524730021  1.0000
  V   V15       1.0  4.209999807313322e-08  0.0045251713450061085  0.9999385147446741  1.0000
  V   V16       1.0  2.0599999641393083e-08  0.009375000225147043  0.9996382294763856  1.0000
  V   V17       1.0  0.005000020330222159  0.006875000090058817  0.9996382294763856  1.0000
  V   V18       1.0  0.004999995653758301  0.0017252351016958578  0.9999384745411882  1.0000
  V   V19       1.0  0.005000020330222159  0.009375000225147043  0.99948741424879  1.0000
  V   V20       1.0  0.005000059334955353  0.0042769092978200435  0.9997901367175819  1.0000
  V   V21       1.0  0.007500020346142458  0.0031249998874264776  0.9995628218625878  1.0000
  V   V22       1.0  0.007500662730217716  0.008125357578535972  0.9998612289761413  1.0000
  V   V23       1.0  0.0025000205133056  0.0031249998874264776  0.9995628218625878  1.0000
  V   V24       1.0  0.0024993813132901943  0.008125355327065526  0.9998612306060123  1.0000
  Ni  Ni5       1.0  0.005000098339688547  0.0054819641051849525  0.0  1.0000
  Ni  Ni6       1.0  0.005000020330222159  0.0006250000337720567  0.9997136370901835  1.0000
  Ni  Ni7       1.0  2.0599999641393083e-08  0.005625000022514704  0.9997136370901835  1.0000
  Ni  Ni8       1.0  0.009999937974514072  0.0007687564216440013  0.9999999326319968  1.0000
