data_image0
_chemical_formula_structural       HFe9Pt9
_chemical_formula_sum              "H1 Fe9 Pt9"
_cell_length_a       4.56864186136173
_cell_length_b       5.293740954305228
_cell_length_c       100.80236053466797
_cell_angle_alpha    87.07756753344856
_cell_angle_beta     86.61323813254931
_cell_angle_gamma    74.2370916666781

_space_group_name_H-M_alt    "P 1"
_space_group_IT_number       1

loop_
  _space_group_symop_operation_xyz
  'x, y, z'

loop_
  _atom_site_type_symbol
  _atom_site_label
  _atom_site_symmetry_multiplicity
  _atom_site_fract_x
  _atom_site_fract_y
  _atom_site_fract_z
  _atom_site_occupancy
  H   H1        1.0  0.0036285662760955624  0.008693820670314933  4.681219505462412e-05  1.0000
  Fe  Fe1       1.0  0.007056249469614212  0.004593373643841749  0.9997673588986804  1.0000
  Fe  Fe2       1.0  0.0057648871898517  0.007122927363115118  0.9999654931921659  1.0000
  Fe  Fe3       1.0  0.001863377545381133  0.0005121346489447862  0.9998828532678284  1.0000
  Fe  Fe4       1.0  0.0038888893166608  0.005582725492333211  0.9994286573704912  1.0000
  Fe  Fe5       1.0  0.002777777989462865  0.008175318282755249  0.9996550067411609  1.0000
  Fe  Fe6       1.0  0.008333334033675015  0.0018790217412046396  0.9995418322030244  1.0000
  Fe  Fe7       1.0  0.0005555557797774303  0.006693836270115255  0.999089133168172  1.0000
  Fe  Fe8       1.0  0.009444444901761441  0.009286428694688318  0.9993154825327056  1.0000
  Fe  Fe9       1.0  0.005000000178302644  0.0029901328848356595  0.9992023080005783  1.0000
  Pt  Pt1       1.0  0.0013248144519264519  0.005720603727491801  0.9999017318838576  1.0000
  Pt  Pt2       1.0  0.0073939449503740646  0.009487865140692053  0.9997623062986917  1.0000
  Pt  Pt3       1.0  0.006225050267940438  0.0021087920928270654  0.9999831003029636  1.0000
  Pt  Pt4       1.0  0.00833333397975667  0.006879021704619743  0.9995418319046592  1.0000
  Pt  Pt5       1.0  0.003888888962163691  0.000582725528918108  0.999428657374299  1.0000
  Pt  Pt6       1.0  0.0027777781005218476  0.003175318136415659  0.999655007039863  1.0000
  Pt  Pt7       1.0  0.005000000124384298  0.007990132848250762  0.9992023079978641  1.0000
  Pt  Pt8       1.0  0.000555555617310637  0.0016938366725491281  0.9990891331704861  1.0000
  Pt  Pt9       1.0  0.009444444784257877  0.004286429280046679  0.9993154825344094  1.0000
