data_image0
_chemical_formula_structural       HNb16
_chemical_formula_sum              "H1 Nb16"
_cell_length_a       5.781773090362549
_cell_length_b       4.720798015594482
_cell_length_c       102.70664978027344
_cell_angle_alpha    90.0
_cell_angle_beta     90.0
_cell_angle_gamma    90.0

_space_group_name_H-M_alt    "P 1"
_space_group_IT_number       1

loop_
  _space_group_symop_operation_xyz
  'x, y, z'

loop_
  _atom_site_type_symbol
  _atom_site_label
  _atom_site_symmetry_multiplicity
  _atom_site_fract_x
  _atom_site_fract_y
  _atom_site_fract_z
  _atom_site_occupancy
  H   H1        1.0  0.0042626441856036534  0.009999937122679258  0.0001199583329804874  1.0000
  Nb  Nb1       1.0  0.004070689169206888  2.2349999599697167e-08  0.9996180198995451  1.0000
  Nb  Nb2       1.0  0.0042626441856036534  0.004999936996419578  0.0  1.0000
  Nb  Nb3       1.0  0.002423041586097928  0.009999977367952323  0.9998851770842758  1.0000
  Nb  Nb4       1.0  0.0008040452159333612  0.004999990656783665  0.9997532179270844  1.0000
  Nb  Nb5       1.0  0.0024040224982447797  2.2349999599697167e-08  0.9990872746131583  1.0000
  Nb  Nb6       1.0  0.0024040224982447797  0.005000022221703716  0.9994853335779484  1.0000
  Nb  Nb7       1.0  0.0007373557467431413  2.2349999599697167e-08  0.9993526472563518  1.0000
  Nb  Nb8       1.0  0.004070689169206888  0.005000022221703716  0.999219960934755  1.0000
  Nb  Nb9       1.0  0.009070689182093214  2.2349999599697167e-08  0.9996180198995451  1.0000
  Nb  Nb10      1.0  0.009262644520648098  0.004999936996419578  0.0  1.0000
  Nb  Nb11      1.0  0.007423041760063313  0.009999977367952323  0.9998851770842758  1.0000
  Nb  Nb12      1.0  0.005804045148280156  0.004999990656783665  0.9997532179270844  1.0000
  Nb  Nb13      1.0  0.0074040221889729845  2.2349999599697167e-08  0.9990872746131583  1.0000
  Nb  Nb14      1.0  0.0074040221889729845  0.005000022221703716  0.9994853335779484  1.0000
  Nb  Nb15      1.0  0.005737355840168996  2.2349999599697167e-08  0.9993526472563518  1.0000
  Nb  Nb16      1.0  0.009070689182093214  0.005000022221703716  0.999219960934755  1.0000
