data_image0
_chemical_formula_structural       COSi5Sb5Pt25
_chemical_formula_sum              "C1 O1 Si5 Sb5 Pt25"
_cell_length_a       8.287510149935729
_cell_length_b       9.002720904711909
_cell_length_c       106.85487365722656
_cell_angle_alpha    101.26925416645797
_cell_angle_beta     118.35321753175145
_cell_angle_gamma    77.4518520771955

_space_group_name_H-M_alt    "P 1"
_space_group_IT_number       1

loop_
  _space_group_symop_operation_xyz
  'x, y, z'

loop_
  _atom_site_type_symbol
  _atom_site_label
  _atom_site_symmetry_multiplicity
  _atom_site_fract_x
  _atom_site_fract_y
  _atom_site_fract_z
  _atom_site_occupancy
  C   C1        1.0  0.00458414703379444  0.005413740075861889  0.0002927523275061196  1.0000
  O   O1        1.0  0.00458414703379444  0.005413740075861889  0.00040505384734642447  1.0000
  Si  Si1       1.0  0.0015000000722646945  0.004200861500266057  0.9999350382896746  1.0000
  Si  Si2       1.0  0.009500000371647  0.008200861565868363  0.9997625852484425  1.0000
  Si  Si3       1.0  0.003500000082588222  0.0002008614821591222  0.00010749103072284422  1.0000
  Si  Si4       1.0  0.007500000103235278  0.002200861530331455  0.9995901322850373  1.0000
  Si  Si5       1.0  0.005499999834823555  0.0062008615791807505  0.9994176792560844  1.0000
  Sb  Sb1       1.0  0.005499999834823555  0.0062008615791807505  0.9998488117555585  1.0000
  Sb  Sb2       1.0  0.003500000082588222  0.0002008614821591222  0.9996763588101534  1.0000
  Sb  Sb3       1.0  0.007500000103235278  0.002200861530331455  2.1264784511455993e-05  1.0000
  Sb  Sb4       1.0  0.0015000000722646945  0.004200861500266057  0.9995039057902004  1.0000
  Sb  Sb5       1.0  0.009500000371647  0.008200861565868363  0.00019371774791663858  1.0000
  Pt  Pt1       1.0  0.009294830580172352  0.006602584205726607  0.9999180899522138  1.0000
  Pt  Pt2       1.0  0.007294830827937018  0.0006025846361187479  0.9997456370154921  1.0000
  Pt  Pt3       1.0  0.0012948307969664354  0.002602584500570596  9.054273948805159e-05  1.0000
  Pt  Pt4       1.0  0.005294831075701685  0.0046025845180005685  0.9995731840028025  1.0000
  Pt  Pt5       1.0  0.003294830807289963  0.008602584144918848  0.9994007312458074  1.0000
  Pt  Pt6       1.0  0.001705169218518856  0.005799138515332698  0.9997795332775518  1.0000
  Pt  Pt7       1.0  0.00970516913076887  0.009799138205117528  0.9996070802158729  1.0000
  Pt  Pt8       1.0  0.003705169357886481  0.0017991384818545836  0.9999519860231001  1.0000
  Pt  Pt9       1.0  0.0077051693785335365  0.0037991385300269165  0.9994346272774145  1.0000
  Pt  Pt10      1.0  0.005705169110121814  0.0077991385788762115  0.00012443896850522395  1.0000
  Pt  Pt11      1.0  0.008294830704054684  0.0036025845791468076  0.999831863486458  1.0000
  Pt  Pt12      1.0  0.006294830951819352  0.007602584566511383  0.9996594104755051  1.0000
  Pt  Pt13      1.0  0.0002948307918046716  0.009602584551817164  4.316475642382911e-06  1.0000
  Pt  Pt14      1.0  0.004294830941495824  0.001602584500232115  0.9994869575211  1.0000
  Pt  Pt15      1.0  0.0022948309311722967  0.0056025845183390495  0.00017676922119064286  1.0000
  Pt  Pt16      1.0  0.0007051692133570923  0.0027991384821930646  0.9996933068003492  1.0000
  Pt  Pt17      1.0  0.008705169254651203  0.006799138156606714  0.9995208537431702  1.0000
  Pt  Pt18      1.0  0.00270516922368062  0.008799138126541317  0.9998657597478076  1.0000
  Pt  Pt19      1.0  0.00670516950241587  0.0007991384815161024  0.00021066580366022812  1.0000
  Pt  Pt20      1.0  0.004705169234004147  0.004799138530365397  3.821249580264075e-05  1.0000
  Pt  Pt21      1.0  0.008499999979352944  0.0052008615788422695  0.00010749125721403919  1.0000
  Pt  Pt22      1.0  0.006500000227117611  0.009200861144275829  0.9999350382393143  1.0000
  Pt  Pt23      1.0  0.0005000000025808819  0.0012008614748120134  0.9994176793107479  1.0000
  Pt  Pt24      1.0  0.004499999958705888  0.0032008615306699365  0.999762585282856  1.0000
  Pt  Pt25      1.0  0.0024999999483823606  0.007200861548776871  0.999590132262903  1.0000
