data_image0
_chemical_formula_structural       HAl12Fe18Si18
_chemical_formula_sum              "H1 Al12 Fe18 Si18"
_cell_length_a       10.221498904647103
_cell_length_b       7.50062006846829
_cell_length_c       104.11243438720703
_cell_angle_alpha    89.83607605335682
_cell_angle_beta     95.1363193248635
_cell_angle_gamma    112.9391374313697

_space_group_name_H-M_alt    "P 1"
_space_group_IT_number       1

loop_
  _space_group_symop_operation_xyz
  'x, y, z'

loop_
  _atom_site_type_symbol
  _atom_site_label
  _atom_site_symmetry_multiplicity
  _atom_site_fract_x
  _atom_site_fract_y
  _atom_site_fract_z
  _atom_site_occupancy
  H   H1        1.0  0.006611230039751283  0.0027806223247864833  0.00012464899194564448  1.0000
  Al  Al1       1.0  0.003037454840231495  0.004490563657164014  0.9993759632985613  1.0000
  Al  Al2       1.0  0.009704121930993279  0.004490563854126236  0.9996490048088432  1.0000
  Al  Al3       1.0  0.006370788385612386  0.0044905638177284175  0.999922046582658  1.0000
  Al  Al4       1.0  0.002327202736253211  0.007726101614241205  0.9996965575684849  1.0000
  Al  Al5       1.0  0.008993869429425823  0.0077261017243325306  0.9999695993615414  1.0000
  Al  Al6       1.0  0.005660536281634103  0.007726101898972195  0.9994235160808701  1.0000
  Al  Al7       1.0  0.0043394639569194005  0.002273898362603853  0.9992937394890544  1.0000
  Al  Al8       1.0  0.0010061307097303874  0.0022738984786638385  0.9995667809792075  1.0000
  Al  Al9       1.0  0.007672797502300292  0.002273898393181363  0.999839822773178  1.0000
  Al  Al10      1.0  0.0036292118529411164  0.005509436562193908  0.9996143337589279  1.0000
  Al  Al11      1.0  0.0002958786057521038  0.005509436684074201  0.9998873755353311  1.0000
  Al  Al12      1.0  0.00696254579591118  0.005509436685462625  0.999341292274841  1.0000
  Fe  Fe1       1.0  0.0013102674413781803  0.007326730696559195  0.9992743904952887  1.0000
  Fe  Fe2       1.0  0.007976934134550792  0.007326730309984176  0.9995474322884476  1.0000
  Fe  Fe3       1.0  0.0046436009867590715  0.007326730484623843  0.9998204737794623  1.0000
  Fe  Fe4       1.0  0.005356399251794431  0.0026732697090486044  0.9997159065621622  1.0000
  Fe  Fe5       1.0  0.0020230659052081256  0.002673269716086235  0.9999889483377155  1.0000
  Fe  Fe6       1.0  0.008689732797175323  0.0026732696833631302  0.9994428650746114  1.0000
  Fe  Fe7       1.0  0.0015101117621571954  0.005567195730207521  0.999495339943029  1.0000
  Fe  Fe8       1.0  0.008176778355932513  0.005567195787539475  0.9997683817352226  1.0000
  Fe  Fe9       1.0  0.004843445208140794  0.005567195962179141  4.1423512488653816e-05  1.0000
  Fe  Fe10      1.0  0.005156555030412709  0.004432804293576599  0.9994949571153744  1.0000
  Fe  Fe11      1.0  0.0018232216838264034  0.0044328043626975224  0.9997679991771661  1.0000
  Fe  Fe12      1.0  0.008489888575793601  0.004432804322214006  4.104039949830541e-05  1.0000
  Fe  Fe13      1.0  0.0011072767986870524  0.009155632314920994  0.9995074435062378  1.0000
  Fe  Fe14      1.0  0.007773943392462371  0.009155631627253432  0.9997804852985851  1.0000
  Fe  Fe15      1.0  0.004440610244670651  0.009155632050226271  5.352707579986407e-05  1.0000
  Fe  Fe16      1.0  0.0055593899938828515  0.0008443682055294688  0.9994828538383145  1.0000
  Fe  Fe17      1.0  0.0022260566472965464  0.0008443683677753316  0.9997558956138357  1.0000
  Fe  Fe18      1.0  0.008892723539263743  0.0008443682419272878  2.8936836185495586e-05  1.0000
  Si  Si1       1.0  0.0034796654449334545  0.0015218123601454542  0.999554395438995  1.0000
  Si  Si2       1.0  0.00014633221016910325  0.001521812426537377  0.9998274366430162  1.0000
  Si  Si3       1.0  0.006812998990314346  0.00152181233445998  0.999281353665193  1.0000
  Si  Si4       1.0  0.005605604168871961  0.009671093213353087  0.9996837471027556  1.0000
  Si  Si5       1.0  0.0022722706234910694  0.009671092431955752  0.9999567883042215  1.0000
  Si  Si6       1.0  0.008938937714252852  0.009671093001417733  0.9994107053289919  1.0000
  Si  Si7       1.0  0.003187001248239157  0.008478187672962587  0.9994359021910353  1.0000
  Si  Si8       1.0  0.009853667941411768  0.008478187783053913  0.9997089436978405  1.0000
  Si  Si9       1.0  0.006520334793620049  0.008478187957693579  0.9999819854751064  1.0000
  Si  Si10      1.0  0.0038516936090053373  0.0038622688190760764  0.9998428600435165  1.0000
  Si  Si11      1.0  0.0005183602127203853  0.003862268861817314  0.9992967764744369  1.0000
  Si  Si12      1.0  0.007185027154386229  0.0038622688671145124  0.9995698182696992  1.0000
  Si  Si13      1.0  0.00281497328296186  0.006137731257467415  0.9999665620736868  1.0000
  Si  Si14      1.0  0.009481639777339885  0.006137731262039999  0.9994204790933319  1.0000
  Si  Si15      1.0  0.006148306629548165  0.006137731436679663  0.9996935208705978  1.0000
  Si  Si16      1.0  0.0010610627230952362  0.0003289072977734556  0.9993065502426721  1.0000
  Si  Si17      1.0  0.007727730012651606  0.00032890753817112835  0.9995795920409436  1.0000
  Si  Si18      1.0  0.004394396069681542  0.0003289071665692391  0.999852633811333  1.0000
