data_image0
_chemical_formula_structural       HAs3Sn3As3Sn3As3Sn3As3Sn3
_chemical_formula_sum              "H1 As12 Sn12"
_cell_length_a       8.272157669067383
_cell_length_b       8.272157893655583
_cell_length_c       100.39385223388672
_cell_angle_alpha    90.0
_cell_angle_beta     90.0
_cell_angle_gamma    119.99999910188878

_space_group_name_H-M_alt    "P 1"
_space_group_IT_number       1

loop_
  _space_group_symop_operation_xyz
  'x, y, z'

loop_
  _atom_site_type_symbol
  _atom_site_label
  _atom_site_symmetry_multiplicity
  _atom_site_fract_x
  _atom_site_fract_y
  _atom_site_fract_z
  _atom_site_occupancy
  H   H1        1.0  0.0025000029526793996  0.0041666714334137505  0.0001227218422194751  1.0000
  As  As1       1.0  0.0025000001341527966  0.004166666753334795  0.9993299718941429  1.0000
  As  As2       1.0  0.0008333362947003862  0.0008333381737483264  0.0  1.0000
  As  As3       1.0  0.004166666873765685  0.002500000156002632  0.9996663568191091  1.0000
  Sn  Sn1       1.0  0.0008333333830263857  0.0008333333636671784  0.999498164356626  1.0000
  Sn  Sn2       1.0  0.004166666873765685  0.002500000156002632  0.9991617797285137  1.0000
  Sn  Sn3       1.0  0.0024999979870957887  0.0041666628532689995  0.9998682258901499  1.0000
  As  As4       1.0  0.0025000000092890596  0.009166666805335672  0.9993299718941429  1.0000
  As  As5       1.0  0.0008333362023371972  0.0058333382907503  0.0  1.0000
  As  As6       1.0  0.004166666748901948  0.007500000208003509  0.9996663568191091  1.0000
  Sn  Sn4       1.0  0.0008333334119568961  0.0058333336106713455  0.999498164356626  1.0000
  Sn  Sn5       1.0  0.004166666748901948  0.007500000208003509  0.9991617797285137  1.0000
  Sn  Sn6       1.0  0.002499997704083557  0.009166662645265491  0.9998682258901499  1.0000
  As  As7       1.0  0.007500000379588545  0.004166666753334795  0.9993299718941429  1.0000
  As  As8       1.0  0.005833336540136134  0.0008333381737483264  0.0  1.0000
  As  As9       1.0  0.009166667513249654  0.002500000156002632  0.9996663568191091  1.0000
  Sn  Sn7       1.0  0.005833333684754738  0.0008333333636671784  0.999498164356626  1.0000
  Sn  Sn8       1.0  0.009166667513249654  0.002500000156002632  0.9991617797285137  1.0000
  Sn  Sn9       1.0  0.007499998429555648  0.0041666628532689995  0.9998682258901499  1.0000
  As  As10      1.0  0.007500000198432205  0.009166666805335672  0.9993299718941429  1.0000
  As  As11      1.0  0.005833336391480343  0.0058333382907503  0.0  1.0000
  As  As12      1.0  0.009166667106922903  0.007500000208003509  0.9996663568191091  1.0000
  Sn  Sn10      1.0  0.005833333601100043  0.0058333336106713455  0.999498164356626  1.0000
  Sn  Sn11      1.0  0.009166667106922903  0.007500000208003509  0.9991617797285137  1.0000
  Sn  Sn12      1.0  0.007499998118397115  0.009166662645265491  0.9998682258901499  1.0000
