data_image0
_chemical_formula_structural       COIr2W2Ir2W2Ir2W2Ir2W2
_chemical_formula_sum              "C1 O1 Ir8 W8"
_cell_length_a       5.565191745758057
_cell_length_b       4.866885185241699
_cell_length_c       101.47210693359375
_cell_angle_alpha    90.0
_cell_angle_beta     90.0
_cell_angle_gamma    90.0

_space_group_name_H-M_alt    "P 1"
_space_group_IT_number       1

loop_
  _space_group_symop_operation_xyz
  'x, y, z'

loop_
  _atom_site_type_symbol
  _atom_site_label
  _atom_site_symmetry_multiplicity
  _atom_site_fract_x
  _atom_site_fract_y
  _atom_site_fract_z
  _atom_site_occupancy
  C   C1        1.0  4.9999999057507303e-11  0.0017014135886658807  0.00015963457128159137  1.0000
  O   O1        1.0  4.9999999057507303e-11  0.0017014135886658807  0.0002778939105357593  1.0000
  Ir  Ir1       1.0  0.0025000000267756473  0.006777696030548083  0.9995580266676651  1.0000
  Ir  Ir2       1.0  0.0025000000267756473  0.003266118733930738  0.9993364872587547  1.0000
  W   W1        1.0  4.9999999057507303e-11  0.0017452283072185268  0.9995580266676651  1.0000
  W   W2        1.0  4.9999999057507303e-11  0.008298587222696534  0.9993364872587547  1.0000
  Ir  Ir3       1.0  0.0025000000267756473  0.006756157420180554  0.0  1.0000
  Ir  Ir4       1.0  0.0025000000267756473  0.0032545954740502174  0.9997793904441844  1.0000
  W   W3        1.0  4.9999999057507303e-11  0.0017014135886658807  0.999988942795541  1.0000
  W   W4        1.0  0.009999999437711404  0.008278120223065512  0.9997867981367807  1.0000
  Ir  Ir5       1.0  0.007500000080326943  0.006777696030548083  0.9995580266676651  1.0000
  Ir  Ir6       1.0  0.007500000080326943  0.003266118733930738  0.9993364872587547  1.0000
  W   W5        1.0  0.004999999718855702  0.0017452283072185268  0.9995580266676651  1.0000
  W   W6        1.0  0.004999999718855702  0.008298587222696534  0.9993364872587547  1.0000
  Ir  Ir7       1.0  0.007500000080326943  0.006756157420180554  0.0  1.0000
  Ir  Ir8       1.0  0.007500000080326943  0.0032545954740502174  0.9997793904441844  1.0000
  W   W7        1.0  0.004999999718855702  0.0017014135886658807  0.999988942795541  1.0000
  W   W8        1.0  0.004999999718855702  0.008278120223065512  0.9997867981367807  1.0000
