data_image0
_chemical_formula_structural       Co8Sn16H
_chemical_formula_sum              "Co8 Sn16 H1"
_cell_length_a       5.3188790063311915
_cell_length_b       8.471010030610719
_cell_length_c       100.8138656616211
_cell_angle_alpha    94.85673268119399
_cell_angle_beta     93.86579335196122
_cell_angle_gamma    97.04343359640899

_space_group_name_H-M_alt    "P 1"
_space_group_IT_number       1

loop_
  _space_group_symop_operation_xyz
  'x, y, z'

loop_
  _atom_site_type_symbol
  _atom_site_label
  _atom_site_symmetry_multiplicity
  _atom_site_fract_x
  _atom_site_fract_y
  _atom_site_fract_z
  _atom_site_occupancy
  Co  Co1       1.0  0.0013007219542289473  0.0037499996617408925  0.9992648570807394  1.0000
  Co  Co2       1.0  0.007967388434153632  0.008749999359088007  0.999519566241743  1.0000
  Co  Co3       1.0  0.004634055205078767  0.0037499996617408925  0.9997742752661914  1.0000
  Co  Co4       1.0  0.0013898603160239947  0.008845871781881185  6.58330968075445e-06  1.0000
  Co  Co5       1.0  0.0013007220098988346  0.0012499999243367787  0.9996469206866406  1.0000
  Co  Co6       1.0  0.007957684457110861  0.006237926553280125  0.9998893329654883  1.0000
  Co  Co7       1.0  0.00796738877484373  0.0012499999243367787  0.9991375025485435  1.0000
  Co  Co8       1.0  0.004634055261819003  0.006249999732953336  0.9993922116630649  1.0000
  Sn  Sn1       1.0  0.005175620516555298  0.009171912614412761  0.999286350021297  1.0000
  Sn  Sn2       1.0  0.0018422872874804346  0.004171912917065646  0.9995410593413627  1.0000
  Sn  Sn3       1.0  0.008508953372537237  0.009171912614412761  0.999795768796579  1.0000
  Sn  Sn4       1.0  0.006223163745608933  0.004156690367069954  6.138410502374683e-05  1.0000
  Sn  Sn5       1.0  0.002967388590027471  0.0083280869939188  0.9995840454253505  1.0000
  Sn  Sn6       1.0  0.009765851985776968  0.003335803387385097  0.9998492623714466  1.0000
  Sn  Sn7       1.0  0.006612419766703093  0.008331039639865569  8.278785502697349e-05  1.0000
  Sn  Sn8       1.0  0.006300721771271028  0.003328086851493912  0.9993293363072742  1.0000
  Sn  Sn9       1.0  0.0007591567337606088  0.000828086947185633  0.9993707187238167  1.0000
  Sn  Sn10      1.0  0.007425823270798554  0.0058280869227063554  0.9996254278870023  1.0000
  Sn  Sn11      1.0  0.004086953815230909  0.0009282557613573023  0.9998804331035128  1.0000
  Sn  Sn12      1.0  0.0040924898883261075  0.0058280869227063554  0.9991160094054647  1.0000
  Sn  Sn13      1.0  0.00963405475858429  0.006671912543200317  0.9993277327770055  1.0000
  Sn  Sn14      1.0  0.006300721903348404  0.001671912957122646  0.9995824418035753  1.0000
  Sn  Sn15      1.0  0.002978906347925705  0.006597804868589684  0.9998497070206702  1.0000
  Sn  Sn16      1.0  0.0008449190281452048  0.00171806206999078  0.00012302874121933148  1.0000
  H   H1        1.0  0.0002341476869647891  0.005390511380546082  1.155633480047383e-05  1.0000
