data_image0
_chemical_formula_structural       HPt32Ti4
_chemical_formula_sum              "H1 Pt32 Ti4"
_cell_length_a       6.297574644275355
_cell_length_b       11.958724975585938
_cell_length_c       100.14497375488281
_cell_angle_alpha    90.0
_cell_angle_beta     95.08072190488421
_cell_angle_gamma    90.0

_space_group_name_H-M_alt    "P 1"
_space_group_IT_number       1

loop_
  _space_group_symop_operation_xyz
  'x, y, z'

loop_
  _atom_site_type_symbol
  _atom_site_label
  _atom_site_symmetry_multiplicity
  _atom_site_fract_x
  _atom_site_fract_y
  _atom_site_fract_z
  _atom_site_occupancy
  H   H1        1.0  0.00651489647915482  0.0041778435837471145  5.203659882420025e-05  1.0000
  Pt  Pt1       1.0  0.004128218374099587  0.005000008423293442  0.9993326845395091  1.0000
  Pt  Pt2       1.0  0.005378218195936474  8.499999527957515e-09  0.9995208178939065  1.0000
  Pt  Pt3       1.0  0.0022941580006545  0.005000008423293442  0.9995871279573234  1.0000
  Pt  Pt4       1.0  0.0010441579561137218  8.499999527957515e-09  0.9993989946016858  1.0000
  Pt  Pt5       1.0  0.008211188662478677  0.0016188482818913664  0.9994599062093992  1.0000
  Pt  Pt6       1.0  0.009461188187377043  0.006618848294351859  0.999648039562143  1.0000
  Pt  Pt7       1.0  0.0053326797043423526  0.006644870165448236  0.9995217969150083  1.0000
  Pt  Pt8       1.0  0.004082679585566944  0.0016448706202562401  0.9993336635589573  1.0000
  Pt  Pt9       1.0  0.001089696818880995  0.006644870165448236  0.999398015582651  1.0000
  Pt  Pt10      1.0  0.0023396967891871428  0.0016448706202562401  0.9995861489378752  1.0000
  Pt  Pt11      1.0  0.0053326797043423526  0.0033551463696263172  0.9995217969150083  1.0000
  Pt  Pt12      1.0  0.004082679585566944  0.008355146382086811  0.9993336635589573  1.0000
  Pt  Pt13      1.0  0.0023396967891871428  0.008355146382086811  0.9995861489378752  1.0000
  Pt  Pt14      1.0  0.001089696818880995  0.0033551463696263172  0.999398015582651  1.0000
  Pt  Pt15      1.0  0.009461188187377043  0.0033811685522350254  0.999648039562143  1.0000
  Pt  Pt16      1.0  0.008211188662478677  0.008381168253183188  0.9994599062093992  1.0000
  Pt  Pt17      1.0  0.006628218314711882  0.005000008423293442  0.9997089512499575  1.0000
  Pt  Pt18      1.0  0.0077395469563849096  8.799999958666694e-09  0.9999113255522045  1.0000
  Pt  Pt19      1.0  0.004854518119141046  0.005000029917644313  0.9999575007297272  1.0000
  Pt  Pt20      1.0  0.003460075820044424  0.00999994955992329  0.9997689218700885  1.0000
  Pt  Pt21      1.0  0.0005388118720106604  0.0016545539810797476  0.9998520751824413  1.0000
  Pt  Pt22      1.0  0.0018124108828110508  0.006507169254448615  1.0113562346598622e-05  1.0000
  Pt  Pt23      1.0  0.007686143157244197  0.0066443518089286824  0.9998991673276186  1.0000
  Pt  Pt24      1.0  0.006582679823117761  0.0016448706202562401  0.9997099302710594  1.0000
  Pt  Pt25      1.0  0.003562333132428689  0.006663619469654292  0.9997727803261256  1.0000
  Pt  Pt26      1.0  0.004697300752827044  0.0015871945793544818  0.9999552753089785  1.0000
  Pt  Pt27      1.0  0.007686216797997427  0.0033556575613622472  0.9998991546436855  1.0000
  Pt  Pt28      1.0  0.006582679823117761  0.008355146382086811  0.9997099302710594  1.0000
  Pt  Pt29      1.0  0.004697293329364017  0.008412916343956505  0.9999552966942463  1.0000
  Pt  Pt30      1.0  0.0035622945304209473  0.0033365023565882952  0.9997727664219282  1.0000
  Pt  Pt31      1.0  0.0018120913769623596  0.003492777190351359  1.009154677479854e-05  1.0000
  Pt  Pt32      1.0  0.0005388400811701639  0.00834527704840142  0.9998520961709638  1.0000
  Ti  Ti1       1.0  0.008211188662478677  0.005000008423293442  0.9994599062093992  1.0000
  Ti  Ti2       1.0  0.009461188187377043  8.499999527957515e-09  0.999648039562143  1.0000
  Ti  Ti3       1.0  0.0007526502921067375  0.005000258567695606  0.9998358402646883  1.0000
  Ti  Ti4       1.0  0.0019115877549775446  0.009999991302575706  0.9999932781855566  1.0000
