data_image0
_chemical_formula_structural       COAl9Pt6Al9Pt6
_chemical_formula_sum              "C1 O1 Al18 Pt12"
_cell_length_a       5.263029098510742
_cell_length_b       11.270549690227384
_cell_length_c       99.8190689086914
_cell_angle_alpha    79.10660458995781
_cell_angle_beta     90.0
_cell_angle_gamma    90.0

_space_group_name_H-M_alt    "P 1"
_space_group_IT_number       1

loop_
  _space_group_symop_operation_xyz
  'x, y, z'

loop_
  _atom_site_type_symbol
  _atom_site_label
  _atom_site_symmetry_multiplicity
  _atom_site_fract_x
  _atom_site_fract_y
  _atom_site_fract_z
  _atom_site_occupancy
  C   C1        1.0  1.3282899850142373e-05  0.0035965598703041335  7.928783574351964e-05  1.0000
  O   O1        1.0  1.3282899850142373e-05  0.0035965598703041335  0.00019950499309876558  1.0000
  Al  Al1       1.0  5.5527000618012545e-06  0.0072035643916242495  0.999413761913365  1.0000
  Al  Al2       1.0  5.5527000618012545e-06  0.003870230932627481  0.9992715090069718  1.0000
  Al  Al3       1.0  5.5527000618012545e-06  0.0005368975157055238  0.9995560148866173  1.0000
  Al  Al4       1.0  0.0035373626529938466  0.006092453463024317  0.9992240913441336  1.0000
  Al  Al5       1.0  0.0035373626529938466  0.002759119835728306  0.999508597228268  1.0000
  Al  Al6       1.0  0.0035373626529938466  0.009425786922021085  0.9993663442505267  1.0000
  Al  Al7       1.0  0.006473742968434878  0.008314675320224181  0.99917667369566  1.0000
  Al  Al8       1.0  0.006473742968434878  0.0049813421978258995  0.9994611795690209  1.0000
  Al  Al9       1.0  0.006473742968434878  0.001648008738829131  0.9993189266626278  1.0000
  Pt  Pt1       1.0  0.008336520091693929  0.006092453463024317  0.9992240913441336  1.0000
  Pt  Pt2       1.0  0.008336520091693929  0.002759119835728306  0.999508597228268  1.0000
  Pt  Pt3       1.0  0.008336520091693929  0.009425786922021085  0.9993663442505267  1.0000
  Pt  Pt4       1.0  0.001674585706690415  0.008314675320224181  0.99917667369566  1.0000
  Pt  Pt5       1.0  0.001674585706690415  0.0049813421978258995  0.9994611795690209  1.0000
  Pt  Pt6       1.0  0.001674585706690415  0.001648008738829131  0.9993189266626278  1.0000
  Al  Al10      1.0  0.009994447727230722  0.007170051299978897  0.9998470058374331  1.0000
  Al  Al11      1.0  6.512369924914248e-05  0.00386885155203246  0.99969692353677  1.0000
  Al  Al12      1.0  0.009379309647939746  0.0005945235130818436  0.9999734422362638  1.0000
  Al  Al13      1.0  0.0035373626529938466  0.006092453463024317  0.9996508498325065  1.0000
  Al  Al14      1.0  0.0035407297645218445  0.002841428768371384  0.9999257492851894  1.0000
  Al  Al15      1.0  0.003685175451525055  0.009463102903359591  0.9997833952701956  1.0000
  Al  Al16      1.0  0.006473742968434878  0.008314675320224181  0.9996034321840329  1.0000
  Al  Al17      1.0  0.006478267369714457  0.004935888274894953  0.9998836177055136  1.0000
  Al  Al18      1.0  0.006562271741407284  0.0016653696472331539  0.9997429112693722  1.0000
  Pt  Pt7       1.0  0.008336520091693929  0.006092453463024317  0.9996508498325065  1.0000
  Pt  Pt8       1.0  0.008366471599851849  0.0027823930965363165  0.9999257335222055  1.0000
  Pt  Pt9       1.0  0.008514641494823224  0.009362805306136377  0.9997982978067034  1.0000
  Pt  Pt10      1.0  0.001674585706690415  0.008314675320224181  0.9996034321840329  1.0000
  Pt  Pt11      1.0  0.0016600946340532873  0.005002238905024553  0.9998794360278924  1.0000
  Pt  Pt12      1.0  0.001835028889519625  0.0016301109558401743  0.9997395052261162  1.0000
