data_image0
_chemical_formula_structural       COMo4Si8
_chemical_formula_sum              "C1 O1 Mo4 Si8"
_cell_length_a       4.557439804077148
_cell_length_b       4.557439716933745
_cell_length_c       101.95243072509766
_cell_angle_alpha    90.0
_cell_angle_beta     90.0
_cell_angle_gamma    119.8955483471606

_space_group_name_H-M_alt    "P 1"
_space_group_IT_number       1

loop_
  _space_group_symop_operation_xyz
  'x, y, z'

loop_
  _atom_site_type_symbol
  _atom_site_label
  _atom_site_symmetry_multiplicity
  _atom_site_fract_x
  _atom_site_fract_y
  _atom_site_fract_z
  _atom_site_occupancy
  C   C1        1.0  0.006666667579037223  0.006666668590124103  0.00016693696616558318  1.0000
  O   O1        1.0  0.006666667579037223  0.006666668590124103  0.0002846385710091866  1.0000
  Mo  Mo1       1.0  0.005000001588392904  0.005000003564053486  0.9993288142073637  1.0000
  Mo  Mo2       1.0  1.8499998505495095e-09  3.749999873545674e-09  0.9995526750291605  1.0000
  Mo  Mo3       1.0  0.005000004939258726  0.005000011107023827  0.9997736445538236  1.0000
  Mo  Mo4       1.0  0.009999997537430657  0.00999999581365146  0.999991146334285  1.0000
  Si  Si1       1.0  0.0033550809683423675  0.00664492409237399  0.9995526750291605  1.0000
  Si  Si2       1.0  0.008355080819355654  0.001644924299805675  0.9993288142073637  1.0000
  Si  Si3       1.0  0.0016449223880511473  0.008355083299736943  0.9993288142073637  1.0000
  Si  Si4       1.0  0.006644922182899423  0.0033550830357329813  0.9995526750291605  1.0000
  Si  Si5       1.0  0.0033711005501266002  0.006628902351934358  0.0  1.0000
  Si  Si6       1.0  0.008353605640066444  0.0016463925861260878  0.9997784975833468  1.0000
  Si  Si7       1.0  0.0016463942520929286  0.008353609591906598  0.9997784975833468  1.0000
  Si  Si8       1.0  0.006628904199995622  0.003371107369068668  0.0  1.0000
