data_image0
_chemical_formula_structural       COAu12Pd4
_chemical_formula_sum              "C1 O1 Au12 Pd4"
_cell_length_a       5.043558731836737
_cell_length_b       5.0435590744018555
_cell_length_c       105.29238891601562
_cell_angle_alpha    90.0
_cell_angle_beta     90.0
_cell_angle_gamma    108.65852112704547

_space_group_name_H-M_alt    "P 1"
_space_group_IT_number       1

loop_
  _space_group_symop_operation_xyz
  'x, y, z'

loop_
  _atom_site_type_symbol
  _atom_site_label
  _atom_site_symmetry_multiplicity
  _atom_site_fract_x
  _atom_site_fract_y
  _atom_site_fract_z
  _atom_site_occupancy
  C   C1        1.0  0.007499999968816107  0.002499999967403087  0.0001644991998338657  1.0000
  O   O1        1.0  0.007499999968816107  0.002499999967403087  0.0002784677823898817  1.0000
  Au  Au1       1.0  0.007499999968816107  0.002499999967403087  0.0  1.0000
  Au  Au2       1.0  0.0025000000545718133  0.007499999958369141  0.9997206796906996  1.0000
  Au  Au3       1.0  0.0025000000545718133  0.007499999958369141  0.0  1.0000
  Au  Au4       1.0  0.007499999968816107  0.002499999967403087  0.9997206796906996  1.0000
  Au  Au5       1.0  0.0025000000545718133  0.002499999884506809  0.9995810192530058  1.0000
  Au  Au6       1.0  0.007499999968816107  0.007499999960478493  0.9998603401283932  1.0000
  Au  Au7       1.0  0.007499999968816107  0.002499999967403087  0.999441359381399  1.0000
  Au  Au8       1.0  0.0025000000545718133  0.007499999958369141  0.9991620387890551  1.0000
  Au  Au9       1.0  0.0025000000545718133  0.007499999958369141  0.999441359381399  1.0000
  Au  Au10      1.0  0.007499999968816107  0.002499999967403087  0.9991620387890551  1.0000
  Au  Au11      1.0  0.0025000000545718133  0.002499999884506809  0.9990223783513614  1.0000
  Au  Au12      1.0  0.007499999968816107  0.007499999960478493  0.9993016989437054  1.0000
  Pd  Pd1       1.0  0.0025000000545718133  0.002499999884506809  0.9998603401283932  1.0000
  Pd  Pd2       1.0  0.007499999968816107  0.007499999960478493  0.9995810192530058  1.0000
  Pd  Pd3       1.0  0.0025000000545718133  0.002499999884506809  0.9993016989437054  1.0000
  Pd  Pd4       1.0  0.007499999968816107  0.007499999960478493  0.9990223783513614  1.0000
