data_image0
_chemical_formula_structural       HSi8Ni16Si8Ni16
_chemical_formula_sum              "H1 Si16 Ni32"
_cell_length_a       6.286498030227337
_cell_length_b       7.135809421539307
_cell_length_c       107.71898651123047
_cell_angle_alpha    90.0
_cell_angle_beta     106.30836348949767
_cell_angle_gamma    90.0

_space_group_name_H-M_alt    "P 1"
_space_group_IT_number       1

loop_
  _space_group_symop_operation_xyz
  'x, y, z'

loop_
  _atom_site_type_symbol
  _atom_site_label
  _atom_site_symmetry_multiplicity
  _atom_site_fract_x
  _atom_site_fract_y
  _atom_site_fract_z
  _atom_site_occupancy
  H   H1        1.0  0.009813763901034396  0.007830581400702457  0.00014831252871000582  1.0000
  Si  Si1       1.0  0.0022940999424754123  0.0011433391458880683  0.9996408640365221  1.0000
  Si  Si2       1.0  0.007294100158575421  0.0011433391458880683  0.999932664710358  1.0000
  Si  Si3       1.0  0.007686236469422763  0.008856661083816459  0.9996179787586471  1.0000
  Si  Si4       1.0  0.002686236407679903  0.008856661083816459  0.9999097795607301  1.0000
  Si  Si5       1.0  0.004794099973346843  0.003856660968964195  7.856538553726081e-05  1.0000
  Si  Si6       1.0  0.009794100035089702  0.003856660968964195  0.9997867645834543  1.0000
  Si  Si7       1.0  0.005186235975479885  0.0061433389997124594  0.9997638794287671  1.0000
  Si  Si8       1.0  0.00018623629962989847  0.0061433389997124594  5.568023717408061e-05  1.0000
  Ni  Ni1       1.0  0.0014489987185145991  0.007948343603158247  0.9996901843621382  1.0000
  Ni  Ni2       1.0  0.0064489984715431605  0.007948343603158247  0.9999819850283854  1.0000
  Ni  Ni3       1.0  0.008531337539026428  0.0020516563655184066  0.9995686584305014  1.0000
  Ni  Ni4       1.0  0.003531337477283567  0.0020516563655184066  0.9998604592325844  1.0000
  Ni  Ni5       1.0  0.00394899859502888  0.00705165648037067  0.9995442836818998  1.0000
  Ni  Ni6       1.0  0.008948998348057442  0.00705165648037067  0.999836084348147  1.0000
  Ni  Ni7       1.0  0.006031337662512146  0.0029483434883059846  0.9997145591107398  1.0000
  Ni  Ni8       1.0  0.0010313375235907118  0.0029483434883059846  6.3599115579755086e-06  1.0000
  Ni  Ni9       1.0  0.002092613388045081  0.004400061745412274  0.9996526227502848  1.0000
  Ni  Ni10      1.0  0.007092613449787941  0.004400061745412274  0.9999444234215911  1.0000
  Ni  Ni11      1.0  0.007887722560781647  0.0055999379622365085  0.9996062200372957  1.0000
  Ni  Ni12      1.0  0.0028877228077530855  0.0055999379622365085  0.9998980208444379  1.0000
  Ni  Ni13      1.0  0.004592613264559361  0.0005999381084121172  0.9995067220700463  1.0000
  Ni  Ni14      1.0  0.009592613326302221  0.0005999381084121172  0.9997985232946873  1.0000
  Ni  Ni15      1.0  0.005387722684267366  0.009400061599236665  0.9997521201641995  1.0000
  Ni  Ni16      1.0  0.00038772281547094295  0.009400061599236665  4.3920969444434234e-05  1.0000
  Si  Si9       1.0  0.0022940999424754123  0.0011433391458880683  0.9990572622864655  1.0000
  Si  Si10      1.0  0.007294100158575421  0.0011433391458880683  0.9993490632369687  1.0000
  Si  Si11      1.0  0.007686236469422763  0.008856661083816459  0.9990343770085904  1.0000
  Si  Si12      1.0  0.002686236407679903  0.008856661083816459  0.9993261780873407  1.0000
  Si  Si13      1.0  0.004794099973346843  0.003856660968964195  0.9994949633588133  1.0000
  Si  Si14      1.0  0.009794100035089702  0.003856660968964195  0.9992031625567304  1.0000
  Si  Si15      1.0  0.005186235975479885  0.0061433389997124594  0.9991802774020432  1.0000
  Si  Si16      1.0  0.00018623629962989847  0.0061433389997124594  0.9994720782104501  1.0000
  Ni  Ni17      1.0  0.0014489987185145991  0.007948343603158247  0.9991065826120815  1.0000
  Ni  Ni18      1.0  0.0064489984715431605  0.007948343603158247  0.999398383554996  1.0000
  Ni  Ni19      1.0  0.008531337539026428  0.0020516563655184066  0.998985056957112  1.0000
  Ni  Ni20      1.0  0.003531337477283567  0.0020516563655184066  0.9992768577591951  1.0000
  Ni  Ni21      1.0  0.00394899859502888  0.00705165648037067  0.9989606822085105  1.0000
  Ni  Ni22      1.0  0.008948998348057442  0.00705165648037067  0.9992524828747577  1.0000
  Ni  Ni23      1.0  0.006031337662512146  0.0029483434883059846  0.9991309573606831  1.0000
  Ni  Ni24      1.0  0.0010313375235907118  0.0029483434883059846  0.999422757884834  1.0000
  Ni  Ni25      1.0  0.002092613388045081  0.004400061745412274  0.9990690210002281  1.0000
  Ni  Ni26      1.0  0.007092613449787941  0.004400061745412274  0.9993608219482017  1.0000
  Ni  Ni27      1.0  0.007887722560781647  0.0055999379622365085  0.999022618287239  1.0000
  Ni  Ni28      1.0  0.0028877228077530855  0.0055999379622365085  0.9993144193710485  1.0000
  Ni  Ni29      1.0  0.004592613264559361  0.0005999381084121172  0.998923120596657  1.0000
  Ni  Ni30      1.0  0.009592613326302221  0.0005999381084121172  0.9992149215446307  1.0000
  Ni  Ni31      1.0  0.005387722684267366  0.009400061599236665  0.9991685186908101  1.0000
  Ni  Ni32      1.0  0.00038772281547094295  0.009400061599236665  0.9994603194960551  1.0000
