data_image0
_chemical_formula_structural       COAu4Ca2Ge4
_chemical_formula_sum              "C1 O1 Au4 Ca2 Ge4"
_cell_length_a       6.166690365493321
_cell_length_b       4.558385848999023
_cell_length_c       99.3017807006836
_cell_angle_alpha    90.0
_cell_angle_beta     87.76100129163561
_cell_angle_gamma    111.69079203442895

_space_group_name_H-M_alt    "P 1"
_space_group_IT_number       1

loop_
  _space_group_symop_operation_xyz
  'x, y, z'

loop_
  _atom_site_type_symbol
  _atom_site_label
  _atom_site_symmetry_multiplicity
  _atom_site_fract_x
  _atom_site_fract_y
  _atom_site_fract_z
  _atom_site_occupancy
  C   C1        1.0  0.0012922722159196584  0.008081001447385171  3.391442209706023e-05  1.0000
  O   O1        1.0  0.0012922722159196584  0.008081001447385171  0.00015475842140927457  1.0000
  Au  Au1       1.0  0.00586394574187351  0.007866903556785619  0.99961187695629  1.0000
  Au  Au2       1.0  0.007745911007845404  0.0037907822269423993  0.9998505974768059  1.0000
  Au  Au3       1.0  0.0030068027657438857  0.0064383320687208066  0.9991903368036544  1.0000
  Au  Au4       1.0  0.004435374253808698  0.002152618047454013  0.9994011070300316  1.0000
  Ca  Ca1       1.0  0.0015600421749414487  0.0007045248120305346  0.9997217775674152  1.0000
  Ca  Ca2       1.0  0.008721088067294252  0.009295474719495989  0.9992957220184563  1.0000
  Ge  Ge1       1.0  0.0012789112917574988  0.0055846823161791  0.9999968971827357  1.0000
  Ge  Ge2       1.0  0.005215646108215324  0.007525108325956107  0.9998702385933393  1.0000
  Ge  Ge3       1.0  0.008113716395623338  0.003991789169438765  0.9995565554755526  1.0000
  Ge  Ge4       1.0  0.002185603437381649  0.006027732404539688  0.9994564285111636  1.0000
