data_image0
_chemical_formula_structural       COIn5Si5Pt25
_chemical_formula_sum              "C1 O1 In5 Si5 Pt25"
_cell_length_a       8.987029855889645
_cell_length_b       8.223909213912592
_cell_length_c       106.61388397216797
_cell_angle_alpha    62.01254674317229
_cell_angle_beta     78.67562375659105
_cell_angle_gamma    77.375614518692

_space_group_name_H-M_alt    "P 1"
_space_group_IT_number       1

loop_
  _space_group_symop_operation_xyz
  'x, y, z'

loop_
  _atom_site_type_symbol
  _atom_site_label
  _atom_site_symmetry_multiplicity
  _atom_site_fract_x
  _atom_site_fract_y
  _atom_site_fract_z
  _atom_site_occupancy
  C   C1        1.0  0.002961849920856501  0.004913006296077073  0.9998045133535245  1.0000
  O   O1        1.0  0.002961849920856501  0.004913006296077073  0.9999170692784342  1.0000
  In  In1       1.0  0.005183936803323339  0.005035892938282576  0.9992768688628788  1.0000
  In  In2       1.0  0.009145538177683214  0.002991702242174149  0.9994423425993645  1.0000
  In  In3       1.0  0.001183936791702812  0.0070358931332502005  0.9991051559785428  1.0000
  In  In4       1.0  0.0032199896561976387  0.0009008744216057249  0.9996379032055106  1.0000
  In  In5       1.0  0.007183936808649331  0.009035892809686908  0.9989334434479462  1.0000
  Si  Si1       1.0  0.003183936805795717  0.0010358930020618782  0.9991910122317098  1.0000
  Si  Si2       1.0  0.007183936808649331  0.009035892809686908  0.9993627249371947  1.0000
  Si  Si3       1.0  0.00918393699512485  0.0030358930025804094  0.9990192996865286  1.0000
  Si  Si4       1.0  0.0011636014705360717  0.006951524523210407  0.9995385985140175  1.0000
  Si  Si5       1.0  0.005203601285919539  0.005240685687199319  0.9996854529037934  1.0000
  Pt  Pt1       1.0  0.00558985918047554  0.008818125380145387  0.9992071665390787  1.0000
  Pt  Pt2       1.0  0.00958985891833464  0.006818125703708679  0.9993788794091759  1.0000
  Pt  Pt3       1.0  0.0015898591386300758  0.0008181258966021806  0.999035454102043  1.0000
  Pt  Pt4       1.0  0.0035803689711967836  0.004650585058019711  0.9995610336758879  1.0000
  Pt  Pt5       1.0  0.007567412619203201  0.0030716210791429843  0.9996970662577651  1.0000
  Pt  Pt6       1.0  0.004778014472961358  0.0012536601075215756  0.9993465706409118  1.0000
  Pt  Pt7       1.0  0.008807986679236938  0.009181817780569531  0.9995218347096281  1.0000
  Pt  Pt8       1.0  0.0007780143712503391  0.0032536601728564716  0.9991748577627596  1.0000
  Pt  Pt9       1.0  0.0027758751937774014  0.007324000318850885  0.9996778416544496  1.0000
  Pt  Pt10      1.0  0.00677801407113516  0.005253659849293179  0.9990031452374112  1.0000
  Pt  Pt11      1.0  0.002589859215302552  0.007818126060457951  0.9992930227848901  1.0000
  Pt  Pt12      1.0  0.006555910722566821  0.005895670090121172  0.9994528801714506  1.0000
  Pt  Pt13      1.0  0.00858985923224907  0.009818125736894659  0.9991213102542935  1.0000
  Pt  Pt14      1.0  0.0005620683787153771  0.0037824600769357187  0.9996265309253836  1.0000
  Pt  Pt15      1.0  0.004589859237193828  0.0018181258644532638  0.9989495978305609  1.0000
  Pt  Pt16      1.0  0.001778014378296792  0.0002536601072623101  0.9994324269135025  1.0000
  Pt  Pt17      1.0  0.005815582643443139  0.008314191626228446  0.9996008536189908  1.0000
  Pt  Pt18      1.0  0.00777801457152511  0.002253660075372659  0.9992607143694298  1.0000
  Pt  Pt19      1.0  0.009778014122908692  0.006253660206042451  0.998917288952626  1.0000
  Pt  Pt20      1.0  0.003778014379723599  0.004253660011074825  0.9990890014974613  1.0000
  Pt  Pt21      1.0  0.004183936694488838  0.008035892971468554  0.9990192997149938  1.0000
  Pt  Pt22      1.0  0.0081839364947349  0.00603589277650093  0.9991910126028286  1.0000
  Pt  Pt23      1.0  0.0002219855882371046  0.00018187410365708492  0.999689456967498  1.0000
  Pt  Pt24      1.0  0.002183936689162847  0.004035893100064222  0.9993627251299264  1.0000
  Pt  Pt25      1.0  0.006137094735236378  0.0019356289890376094  0.9995458999472381  1.0000
