data_image0
_chemical_formula_structural       COAl24Ir8Al24Ir8
_chemical_formula_sum              "C1 O1 Al48 Ir16"
_cell_length_a       7.479936122894287
_cell_length_b       16.24243199582528
_cell_length_c       100.22980499267578
_cell_angle_alpha    97.63952688548947
_cell_angle_beta     90.0
_cell_angle_gamma    76.68767243316478

_space_group_name_H-M_alt    "P 1"
_space_group_IT_number       1

loop_
  _space_group_symop_operation_xyz
  'x, y, z'

loop_
  _atom_site_type_symbol
  _atom_site_label
  _atom_site_symmetry_multiplicity
  _atom_site_fract_x
  _atom_site_fract_y
  _atom_site_fract_z
  _atom_site_occupancy
  C   C1        1.0  0.00019718005122442648  0.000575097453757054  0.00016807543884372715  1.0000
  O   O1        1.0  0.00019718005122442648  0.000575097453757054  0.000287800547752918  1.0000
  Al  Al1       1.0  0.006857142992257009  0.006232407405236175  0.999474226144231  1.0000
  Al  Al2       1.0  0.009357142828092831  0.0012324077335645334  0.9993665103996491  1.0000
  Al  Al3       1.0  0.004357142489427184  0.0012324077335645334  0.999581942390597  1.0000
  Al  Al4       1.0  0.0018571426535913635  0.006232407405236175  0.9996896584325188  1.0000
  Al  Al5       1.0  0.005607142925639662  0.008732407538470871  0.9995280841715989  1.0000
  Al  Al6       1.0  0.008107142820955256  0.0037324077478396796  0.9994203684244543  1.0000
  Al  Al7       1.0  0.0031071424822896113  0.0037324077478396796  0.999635800415402  1.0000
  Al  Al8       1.0  0.0006071425869740157  0.008732407538470871  0.9993126521806511  1.0000
  Al  Al9       1.0  0.00770109192557862  0.007877842101627954  0.9997251063773936  1.0000
  Al  Al10      1.0  0.00020109213408847564  0.0028778420730776627  0.9996173903277835  1.0000
  Al  Al11      1.0  0.005201092099225836  0.0028778420730776627  0.9994019583368358  1.0000
  Al  Al12      1.0  0.0027010920849506897  0.007877842101627954  0.999509674089106  1.0000
  Al  Al13      1.0  0.005617758931123253  0.005377841968393258  0.9996712483500259  1.0000
  Al  Al14      1.0  0.008117758841308793  0.0003778421480221789  0.9995635323049006  1.0000
  Al  Al15      1.0  0.003117758751662004  0.0003778421480221789  0.9993481003139528  1.0000
  Al  Al16      1.0  0.0006177588414764645  0.005377841968393258  0.9994558160617382  1.0000
  Al  Al17      1.0  0.004763193256361236  0.007086973317917292  0.9997080685252627  1.0000
  Al  Al18      1.0  0.007263193270636382  0.002086973289367  0.9996003524756526  1.0000
  Al  Al19      1.0  0.002263193430008451  0.002086973289367  0.9993849204847048  1.0000
  Al  Al20      1.0  0.009763193595026882  0.007086973317917292  0.999492636236975  1.0000
  Al  Al21      1.0  0.006846526488735702  0.009586972975313789  0.9993310622631439  1.0000
  Al  Al22      1.0  0.009346526384051299  0.004586973184682597  0.9996542104978948  1.0000
  Al  Al23      1.0  0.004346526543423368  0.004586973184682597  0.9994387785069471  1.0000
  Al  Al24      1.0  0.001846526648107772  0.009586972975313789  0.9995464942540918  1.0000
  Ir  Ir1       1.0  0.008523809273774509  0.006232407405236175  0.9996896584325188  1.0000
  Ir  Ir2       1.0  0.0010238094283544692  0.0012324077335645334  0.999581942390597  1.0000
  Ir  Ir3       1.0  0.0060238092689823995  0.0012324077335645334  0.9993665103996491  1.0000
  Ir  Ir4       1.0  0.003523809433146579  0.006232407405236175  0.999474226144231  1.0000
  Ir  Ir5       1.0  0.003940476146084447  0.008732407538470871  0.9993126521806511  1.0000
  Ir  Ir6       1.0  0.006440476041400042  0.0037324077478396796  0.999635800415402  1.0000
  Ir  Ir7       1.0  0.0014404759517532538  0.0037324077478396796  0.9994203684244543  1.0000
  Ir  Ir8       1.0  0.008940476484750094  0.008732407538470871  0.9995280841715989  1.0000
  Al  Al25      1.0  0.006840539535527684  0.006230245672293445  0.9999004258664733  1.0000
  Al  Al26      1.0  0.009357142828092831  0.0012324077335645334  0.9997973743815447  1.0000
  Al  Al27      1.0  0.004311976150174223  0.001250793883694546  2.5672310826373823e-05  1.0000
  Al  Al28      1.0  0.0019183971451420935  0.006309763945576657  0.00013099969915764044  1.0000
  Al  Al29      1.0  0.005514640291011991  0.008789259734933913  0.9999744621969167  1.0000
  Al  Al30      1.0  0.008107142820955256  0.0037324077478396796  0.9998512324063498  1.0000
  Al  Al31      1.0  0.003127354303941026  0.0036936067114138314  7.957214429903645e-05  1.0000
  Al  Al32      1.0  0.0006071425869740157  0.008732407538470871  0.9997435164598866  1.0000
  Al  Al33      1.0  0.008072381804110119  0.007864947362245375  0.0001337637459739239  1.0000
  Al  Al34      1.0  0.00014250281108812597  0.002888494187023507  5.685807196476965e-05  1.0000
  Al  Al35      1.0  0.005201092099225836  0.0028778420730776627  0.9998328223187313  1.0000
  Al  Al36      1.0  0.0026309203494608814  0.007905225638363211  0.999954540706815  1.0000
  Al  Al37      1.0  0.005713567467247269  0.005398617064206516  0.00010862027645707177  1.0000
  Al  Al38      1.0  0.00811231750022614  0.0004005751395892297  6.151740177841434e-07  1.0000
  Al  Al39      1.0  0.003117758751662004  0.0003778421480221789  0.9997789642958483  1.0000
  Al  Al40      1.0  0.0006413172811981184  0.00536101823299304  0.9998964476801713  1.0000
  Al  Al41      1.0  0.005029156554622042  0.007116477665510078  0.00013844596464321124  1.0000
  Al  Al42      1.0  0.007297327948046655  0.002092969326525563  3.8999755703910084e-05  1.0000
  Al  Al43      1.0  0.002263193430008451  0.002086973289367  0.9998157844666004  1.0000
  Al  Al44      1.0  0.009857497222651758  0.0070462872484620305  0.9999134031993625  1.0000
  Al  Al45      1.0  0.006846526488735702  0.009586972975313789  0.9997619265423795  1.0000
  Al  Al46      1.0  0.009307621041050504  0.004575491684754102  9.620811427895658e-05  1.0000
  Al  Al47      1.0  0.0043407514744258635  0.00458818704793087  0.999879087773399  1.0000
  Al  Al48      1.0  0.0017221342302350061  0.009622157403500317  0.999981684895248  1.0000
  Ir  Ir9       1.0  0.008583399091646427  0.006235155370841342  0.00010259552253863076  1.0000
  Ir  Ir10      1.0  0.0009837652274543734  0.00124920624954015  0.9999985968262343  1.0000
  Ir  Ir11      1.0  0.0060238092689823995  0.0012324077335645334  0.9997973743815447  1.0000
  Ir  Ir12      1.0  0.0035107276788753443  0.006224943407230524  0.9998948961866673  1.0000
  Ir  Ir13      1.0  0.003940476146084447  0.008732407538470871  0.9997435164598866  1.0000
  Ir  Ir14      1.0  0.006434003065075257  0.003748661666995363  5.3690162308158696e-05  1.0000
  Ir  Ir15      1.0  0.0014404759517532538  0.0037324077478396796  0.9998512324063498  1.0000
  Ir  Ir16      1.0  0.008932769805251982  0.008718207574905611  0.999952575019594  1.0000
