data_image0
_chemical_formula_structural       COAl12Ni20
_chemical_formula_sum              "C1 O1 Al12 Ni20"
_cell_length_a       5.051436831335272
_cell_length_b       10.793362771960359
_cell_length_c       98.44417572021484
_cell_angle_alpha    89.80075092809325
_cell_angle_beta     87.59001891893126
_cell_angle_gamma    83.6376874926688

_space_group_name_H-M_alt    "P 1"
_space_group_IT_number       1

loop_
  _space_group_symop_operation_xyz
  'x, y, z'

loop_
  _atom_site_type_symbol
  _atom_site_label
  _atom_site_symmetry_multiplicity
  _atom_site_fract_x
  _atom_site_fract_y
  _atom_site_fract_z
  _atom_site_occupancy
  C   C1        1.0  0.0022720060697646012  0.00938285170992967  2.96101659891534e-05  1.0000
  O   O1        1.0  0.0022720060697646012  0.00938285170992967  0.00015150690828907338  1.0000
  Al  Al1       1.0  0.005099300342213288  0.007186499011864208  0.9997530388736442  1.0000
  Al  Al2       1.0  0.005359307768990264  0.0014207539371848092  0.9999444463362804  1.0000
  Al  Al3       1.0  0.007982888832309395  0.003395164416878528  0.9998176362855892  1.0000
  Al  Al4       1.0  0.007733184804009494  0.007781888166401552  0.9999803471834917  1.0000
  Al  Al5       1.0  0.0023667814361876295  0.005357709885171944  0.999889642657461  1.0000
  Al  Al6       1.0  0.002352221170710186  0.0009455642243867504  0.9997042329801362  1.0000
  Al  Al7       1.0  0.005073373354695082  0.008426051495126045  0.9993983877051015  1.0000
  Al  Al8       1.0  0.005073373566260382  0.0028010515368003122  0.9995789733330669  1.0000
  Al  Al9       1.0  0.007867549461388002  0.00464850378986905  0.9994488465398912  1.0000
  Al  Al10      1.0  0.007867549597722994  0.009023503525932019  0.9996294320296351  1.0000
  Al  Al11      1.0  0.0022791974595674632  0.006578599242057307  0.9995285144982772  1.0000
  Al  Al12      1.0  0.0022791975488968066  0.0022035993323515544  0.9993479287053795  1.0000
  Ni  Ni1       1.0  0.009926626296968626  0.009386448199262657  0.9998564547422211  1.0000
  Ni  Ni2       1.0  7.337371508511804e-05  0.004988551578474581  0.9996692661450567  1.0000
  Ni  Ni3       1.0  0.00039271462927615674  0.001540094281252456  0.9999228663975176  1.0000
  Ni  Ni4       1.0  0.00011205860320732741  0.007191374206655294  0.999755403719589  1.0000
  Ni  Ni5       1.0  0.005073373593294613  0.004988551578474581  0.999669266229328  1.0000
  Ni  Ni6       1.0  0.004906913400122174  0.009375410769368778  0.9998505693432596  1.0000
  Ni  Ni7       1.0  0.002814486315113389  0.007543969770086064  0.9999636057045646  1.0000
  Ni  Ni8       1.0  0.00301868249145397  0.003171092990694836  0.9998067148257774  1.0000
  Ni  Ni9       1.0  0.007313805716697885  0.005649125192101707  0.9998911859405415  1.0000
  Ni  Ni10      1.0  0.0073635276394271865  0.001204506247078356  0.999717658159794  1.0000
  Ni  Ni11      1.0  7.337375328219249e-05  0.0006135514951260444  0.9994886803523355  1.0000
  Ni  Ni12      1.0  7.337364398143123e-05  0.006238551800737344  0.999308094724017  1.0000
  Ni  Ni13      1.0  7.337373418365539e-05  0.0028010515368003122  0.999578973248696  1.0000
  Ni  Ni14      1.0  7.337375328219239e-05  0.008426051495126045  0.999398387620233  1.0000
  Ni  Ni15      1.0  0.005073373245394322  0.006238551800737344  0.9993080948088855  1.0000
  Ni  Ni16      1.0  0.005073373539226152  0.0006135514951260444  0.9994886804368058  1.0000
  Ni  Ni17      1.0  0.0028429880987308333  0.008776845341034649  0.99961925093988  1.0000
  Ni  Ni18      1.0  0.0028429880446623726  0.0044018452576861135  0.9994386651473579  1.0000
  Ni  Ni19      1.0  0.007303758794026561  0.006825258121525811  0.9995386958908555  1.0000
  Ni  Ni20      1.0  0.007303758781091367  0.0024502578645344913  0.9993581100983109  1.0000
