data_image0
_chemical_formula_structural       COZn2Pd2Zn2Pd2Zn2Pd2Zn2Pd2
_chemical_formula_sum              "C1 O1 Zn8 Pd8"
_cell_length_a       5.883575439453125
_cell_length_b       4.533723776800199
_cell_length_c       101.73606872558594
_cell_angle_alpha    80.91260056042124
_cell_angle_beta     90.0
_cell_angle_gamma    90.0

_space_group_name_H-M_alt    "P 1"
_space_group_IT_number       1

loop_
  _space_group_symop_operation_xyz
  'x, y, z'

loop_
  _atom_site_type_symbol
  _atom_site_label
  _atom_site_symmetry_multiplicity
  _atom_site_fract_x
  _atom_site_fract_y
  _atom_site_fract_z
  _atom_site_occupancy
  C   C1        1.0  0.001250008503443055  0.008930632373993058  0.00010525473799916688  1.0000
  O   O1        1.0  0.001250008503443055  0.008930632373993058  0.0002232072446078397  1.0000
  Zn  Zn1       1.0  0.0037499965429040154  4.2198099345300986e-05  0.9992789120959168  1.0000
  Zn  Zn2       1.0  0.0037499965429040154  0.005042197836704632  0.9995017301196396  1.0000
  Pd  Pd1       1.0  0.0012499965524015314  4.2198099345300986e-05  0.9995017301207204  1.0000
  Pd  Pd2       1.0  0.0012499965524015314  0.005042197836704632  0.999278912094836  1.0000
  Zn  Zn3       1.0  0.0037500012916622367  0.0099578014143794  0.9997179355998604  1.0000
  Zn  Zn4       1.0  0.0037500035077494063  0.00444363423756227  0.9999586017007042  1.0000
  Pd  Pd3       1.0  0.001250008503443055  0.00954169454853082  0.9999328416138986  1.0000
  Pd  Pd4       1.0  0.001250004704436478  0.004960209428858708  0.9997254163927112  1.0000
  Zn  Zn5       1.0  0.008749996682200924  4.2198099345300986e-05  0.9992789120959168  1.0000
  Zn  Zn6       1.0  0.008749996682200924  0.005042197836704632  0.9995017301196396  1.0000
  Pd  Pd5       1.0  0.006249996454260528  4.2198099345300986e-05  0.9995017301207204  1.0000
  Pd  Pd6       1.0  0.006249996454260528  0.005042197836704632  0.999278912094836  1.0000
  Zn  Zn7       1.0  0.008750001747543026  0.0099578014143794  0.9997179355998604  1.0000
  Zn  Zn8       1.0  0.008750003647046315  0.00444363423756227  0.9999586017007042  1.0000
  Pd  Pd7       1.0  0.006250008484448022  0.00954169454853082  0.9999328416138986  1.0000
  Pd  Pd8       1.0  0.006250004685441446  0.004960209428858708  0.9997254163927112  1.0000
