data_image0
_chemical_formula_structural       COCu4Au4Cu4Au4Cu4Au4Cu4Au4
_chemical_formula_sum              "C1 O1 Cu16 Au16"
_cell_length_a       8.182418823242188
_cell_length_b       6.867035251128616
_cell_length_c       103.09160614013672
_cell_angle_alpha    94.63095108515842
_cell_angle_beta     90.0
_cell_angle_gamma    53.432084743502394

_space_group_name_H-M_alt    "P 1"
_space_group_IT_number       1

loop_
  _space_group_symop_operation_xyz
  'x, y, z'

loop_
  _atom_site_type_symbol
  _atom_site_label
  _atom_site_symmetry_multiplicity
  _atom_site_fract_x
  _atom_site_fract_y
  _atom_site_fract_z
  _atom_site_occupancy
  C   C1        1.0  0.009867457091161286  0.005338351634200907  8.693557338214528e-05  1.0000
  O   O1        1.0  0.009867457091161286  0.005338351634200907  0.00020333656045900042  1.0000
  Cu  Cu1       1.0  0.003757747730702249  0.007556968734806455  0.9993733222790304  1.0000
  Cu  Cu2       1.0  0.0025077474890009034  0.005056968599028569  0.9995070690930022  1.0000
  Cu  Cu3       1.0  7.747747718332023e-06  5.696879951310322e-05  0.999239575574529  1.0000
  Cu  Cu4       1.0  0.0012577478453581331  0.0025569686329730405  0.9991058287589313  1.0000
  Au  Au1       1.0  0.003757747730702249  0.007556968734806455  0.9991058288490956  1.0000
  Au  Au2       1.0  0.0025077474890009034  0.005056968599028569  0.9992395753739816  1.0000
  Au  Au3       1.0  7.747747718332023e-06  5.696879951310322e-05  0.9995070692935496  1.0000
  Au  Au4       1.0  0.0012577478453581331  0.0025569686329730405  0.9993733221888661  1.0000
  Cu  Cu5       1.0  0.003798135764058686  0.007478070242136505  0.9999197110351893  1.0000
  Cu  Cu6       1.0  0.002461496934795696  0.005147697758317971  2.768430427479169e-05  1.0000
  Cu  Cu7       1.0  0.0099922516222606  8.748079536370388e-05  0.9997728731985802  1.0000
  Cu  Cu8       1.0  0.0012577478453581331  0.0025569686329730405  0.9996408156188009  1.0000
  Au  Au5       1.0  0.003757747730702249  0.007556968734806455  0.999640815998051  1.0000
  Au  Au6       1.0  0.002514597335547005  0.005043563927269978  0.9997707774142662  1.0000
  Au  Au7       1.0  6.49166827130049e-05  0.00994303085785989  3.3938328434711474e-05  1.0000
  Au  Au8       1.0  0.0012540847473596305  0.0025640234821878967  0.9999164269386059  1.0000
  Cu  Cu9       1.0  0.008757746984043318  0.007556968734806455  0.9993733222790304  1.0000
  Cu  Cu10      1.0  0.007507747197621808  0.005056968599028569  0.9995070690930022  1.0000
  Cu  Cu11      1.0  0.005007747388758636  5.696879951310322e-05  0.999239575574529  1.0000
  Cu  Cu12      1.0  0.006257747781618956  0.0025569686329730405  0.9991058287589313  1.0000
  Au  Au9       1.0  0.008757746984043318  0.007556968734806455  0.9991058288490956  1.0000
  Au  Au10      1.0  0.007507747197621808  0.005056968599028569  0.9992395753739816  1.0000
  Au  Au11      1.0  0.005007747388758636  5.696879951310322e-05  0.9995070692935496  1.0000
  Au  Au12      1.0  0.006257747781618956  0.0025569686329730405  0.9993733221888661  1.0000
  Cu  Cu13      1.0  0.008798135927959427  0.007478070242136505  0.9999197110351893  1.0000
  Cu  Cu14      1.0  0.007461496643416601  0.005147697758317971  2.768430427479169e-05  1.0000
  Cu  Cu15      1.0  0.004992251913639695  8.748079536370388e-05  0.9997728731985802  1.0000
  Cu  Cu16      1.0  0.006257747781618956  0.0025569686329730405  0.9996408156188009  1.0000
  Au  Au13      1.0  0.008757746984043318  0.007556968734806455  0.999640815998051  1.0000
  Au  Au14      1.0  0.007514597044167909  0.005043563927269978  0.9997707774142662  1.0000
  Au  Au15      1.0  0.00506491639133391  0.00994303085785989  3.3938328434711474e-05  1.0000
  Au  Au16      1.0  0.006254084683620454  0.0025640234821878967  0.9999164269386059  1.0000
