data_image0
_chemical_formula_structural       COV18Ga6V18Ga6
_chemical_formula_sum              "C1 O1 V36 Ga12"
_cell_length_a       4.802628517150879
_cell_length_b       10.739004170927075
_cell_length_c       110.75165557861328
_cell_angle_alpha    71.56505117707799
_cell_angle_beta     90.0
_cell_angle_gamma    90.0

_space_group_name_H-M_alt    "P 1"
_space_group_IT_number       1

loop_
  _space_group_symop_operation_xyz
  'x, y, z'

loop_
  _atom_site_type_symbol
  _atom_site_label
  _atom_site_symmetry_multiplicity
  _atom_site_fract_x
  _atom_site_fract_y
  _atom_site_fract_z
  _atom_site_occupancy
  C   C1        1.0  0.004999900030699449  0.0014193390065757093  0.9999183561717534  1.0000
  O   O1        1.0  0.004999900030699449  0.0014193390065757093  2.670691609222892e-05  1.0000
  V   V1        1.0  1.9800000702537063e-08  0.007530348194228443  0.9987768280899855  1.0000
  V   V2        1.0  1.9800000702537063e-08  0.004197015241179234  0.9991856670328937  1.0000
  V   V3        1.0  1.9800000702537063e-08  0.0008636816482288542  0.99898124768197  1.0000
  V   V4        1.0  1.9800000702537063e-08  0.005863681717703839  0.998674618404713  1.0000
  V   V5        1.0  1.9800000702537063e-08  0.0025303483989968178  0.9990834576279248  1.0000
  V   V6        1.0  1.9800000702537063e-08  0.00919701503641086  0.9988790380331372  1.0000
  V   V7        1.0  0.005000019872854439  0.007530348194228443  0.9989301429374402  1.0000
  V   V8        1.0  0.005000019872854439  0.004197015241179234  0.998725723297804  1.0000
  V   V9        1.0  0.005000019872854439  0.0008636816482288542  0.9991345625294248  1.0000
  V   V10       1.0  0.005000019872854439  0.00919701503641086  0.9987257231856824  1.0000
  V   V11       1.0  0.005000019872854439  0.005863681717703839  0.9991345621398028  1.0000
  V   V12       1.0  0.005000019872854439  0.0025303483989968178  0.9989301427804701  1.0000
  V   V13       1.0  0.007500019919395082  0.005030348296612631  0.9989301425898637  1.0000
  V   V14       1.0  0.007500019919395082  0.0016970149779056095  0.998725723230531  1.0000
  V   V15       1.0  0.007500019919395082  0.008363681615319652  0.9991345624873793  1.0000
  V   V16       1.0  0.0025000198263137965  0.005030348296612631  0.9989301425898637  1.0000
  V   V17       1.0  0.0025000198263137965  0.0016970149779056095  0.998725723230531  1.0000
  V   V18       1.0  0.0025000198263137965  0.008363681615319652  0.9991345624873793  1.0000
  Ga  Ga1       1.0  0.005000019872854439  0.006697014773137235  0.9987257233875011  1.0000
  Ga  Ga2       1.0  0.005000019872854439  0.003363681820088026  0.9991345623304092  1.0000
  Ga  Ga3       1.0  0.005000019872854439  3.034834997581715e-05  0.9989301429757191  1.0000
  Ga  Ga4       1.0  1.9800000702537063e-08  0.006697014773137235  0.9990323525442275  1.0000
  Ga  Ga5       1.0  1.9800000702537063e-08  0.003363681820088026  0.9988279331736828  1.0000
  Ga  Ga6       1.0  1.9800000702537063e-08  3.034834997581715e-05  0.9992367721324457  1.0000
  V   V19       1.0  1.9800000702537063e-08  0.007530348194228443  0.9993900869416213  1.0000
  V   V20       1.0  0.009999980794228107  0.004203435826691349  0.9997673244250082  1.0000
  V   V21       1.0  2.7400002107965696e-08  0.0009171217146493963  0.9995947569259931  1.0000
  V   V22       1.0  1.9800000702537063e-08  0.005863681717703839  0.9992878769872575  1.0000
  V   V23       1.0  0.009999977691518593  0.002525053125399591  0.9996942928794836  1.0000
  V   V24       1.0  1.9800000702537063e-08  0.00919701503641086  0.999492296884773  1.0000
  V   V25       1.0  0.005000019872854439  0.007530348194228443  0.9995434017890761  1.0000
  V   V26       1.0  0.005000019872854439  0.004197015241179234  0.9993389818803483  1.0000
  V   V27       1.0  0.004999856592766249  0.0007104886682000659  0.9997496701261417  1.0000
  V   V28       1.0  0.005000019872854439  0.00919701503641086  0.9993389820373183  1.0000
  V   V29       1.0  0.005000026853950846  0.005771882958469136  0.9997252427284791  1.0000
  V   V30       1.0  0.005000019872854439  0.0025303483989968178  0.999543401632106  1.0000
  V   V31       1.0  0.007500019919395082  0.005030348296612631  0.9995434014414996  1.0000
  V   V32       1.0  0.007500019919395082  0.0016970149779056095  0.9993389820821669  1.0000
  V   V33       1.0  0.007183498559647779  0.00838224094320011  0.9997429758543189  1.0000
  V   V34       1.0  0.0025000198263137965  0.005030348296612631  0.9995434014414996  1.0000
  V   V35       1.0  0.0025000198263137965  0.0016970149779056095  0.9993389820821669  1.0000
  V   V36       1.0  0.0028164535345173206  0.008382266539246914  0.999742974531286  1.0000
  Ga  Ga7       1.0  0.005000019872854439  0.006697014773137235  0.999338982239137  1.0000
  Ga  Ga8       1.0  0.004999943856471339  0.0032034289932781684  0.9997573429265587  1.0000
  Ga  Ga9       1.0  0.005000019872854439  3.034834997581715e-05  0.999543401827355  1.0000
  Ga  Ga10      1.0  4.0000001479044054e-08  0.00673270443817081  0.9996462543001602  1.0000
  Ga  Ga11      1.0  1.9800000702537063e-08  0.003363681820088026  0.9994411920253187  1.0000
  Ga  Ga12      1.0  0.009999847377718992  0.00996965145474006  0.9998435769670289  1.0000
