data_image0
_chemical_formula_structural       HAl4Au8Al4Au8
_chemical_formula_sum              "H1 Al8 Au16"
_cell_length_a       4.765717029571533
_cell_length_b       9.687620559022466
_cell_length_c       36.63998031616211
_cell_angle_alpha    75.76086869546417
_cell_angle_beta     90.0
_cell_angle_gamma    75.76086869546417

_space_group_name_H-M_alt    "P 1"
_space_group_IT_number       1

loop_
  _space_group_symop_operation_xyz
  'x, y, z'

loop_
  _atom_site_type_symbol
  _atom_site_label
  _atom_site_symmetry_multiplicity
  _atom_site_fract_x
  _atom_site_fract_y
  _atom_site_fract_z
  _atom_site_occupancy
  H   H1        1.0  0.008982922759574389  0.008295555452772291  0.9997917049292435  1.0000
  Al  Al1       1.0  0.0003863033854669963  0.0004730087335298424  0.9985821918716993  1.0000
  Al  Al2       1.0  0.00516126531721897  0.0009416432561669607  0.9992694559267294  1.0000
  Al  Al3       1.0  0.007886303224224093  0.00547300848538548  0.9989073640958995  1.0000
  Al  Al4       1.0  0.00241100652488806  0.006441483119791478  0.999554981891882  1.0000
  Au  Au1       1.0  0.00942371472155578  0.0024166129367813277  0.9993777339182704  1.0000
  Au  Au2       1.0  0.003931314769538379  0.003404252108936691  0.9997423451547418  1.0000
  Au  Au3       1.0  0.008113419550746351  0.005038561847215444  0.9996723202388126  1.0000
  Au  Au4       1.0  0.003671520058580558  0.003913539702074253  0.9989579532807792  1.0000
  Au  Au5       1.0  0.006615024688453032  0.00803197938200402  0.9995680510252549  1.0000
  Au  Au6       1.0  0.002113696411758384  0.007018222297921337  0.9988068720689226  1.0000
  Au  Au7       1.0  0.006158910228929455  0.008927794475974755  0.9986826842204355  1.0000
  Au  Au8       1.0  0.0008668930865238187  0.00952699051383395  0.9993108457757739  1.0000
  Al  Al5       1.0  0.0003863033854669963  0.0004730087335298424  0.9972815044384683  1.0000
  Al  Al6       1.0  0.005386303193954131  0.0004730087335298424  0.9979318481550837  1.0000
  Al  Al7       1.0  0.007886303224224093  0.00547300848538548  0.9976066762559771  1.0000
  Al  Al8       1.0  0.0028863033180263125  0.00547300848538548  0.9982570199725926  1.0000
  Au  Au9       1.0  0.009613696322057724  0.002018222289718218  0.9978313561447782  1.0000
  Au  Au10      1.0  0.004613696415859944  0.002018222289718218  0.9984816998613938  1.0000
  Au  Au11      1.0  0.008658909925414036  0.003927795083005593  0.9983575119728954  1.0000
  Au  Au12      1.0  0.003658910019216256  0.003927795083005593  0.9977071682562798  1.0000
  Au  Au13      1.0  0.007113696317956164  0.007018222297921337  0.9981565279456157  1.0000
  Au  Au14      1.0  0.002113696411758384  0.007018222297921337  0.9975061842290003  1.0000
  Au  Au15      1.0  0.006158910228929455  0.008927794475974755  0.9973819963805132  1.0000
  Au  Au16      1.0  0.001158910322731675  0.008927794475974755  0.9980323400971287  1.0000
