data_image0
_chemical_formula_structural       COAs18Si18
_chemical_formula_sum              "C1 O1 As18 Si18"
_cell_length_a       10.922484058444518
_cell_length_b       9.118569299257365
_cell_length_c       101.50204467773438
_cell_angle_alpha    94.08328191967865
_cell_angle_beta     92.61492667178199
_cell_angle_gamma    65.51310723369829

_space_group_name_H-M_alt    "P 1"
_space_group_IT_number       1

loop_
  _space_group_symop_operation_xyz
  'x, y, z'

loop_
  _atom_site_type_symbol
  _atom_site_label
  _atom_site_symmetry_multiplicity
  _atom_site_fract_x
  _atom_site_fract_y
  _atom_site_fract_z
  _atom_site_occupancy
  C   C1        1.0  0.0028379587898671  0.0035871800886551194  0.0002091060731390098  1.0000
  O   O1        1.0  0.0028379587898671  0.0035871800886551194  0.00032732994490582775  1.0000
  As  As1       1.0  0.006376268965878571  0.0016333899002234544  0.999872005545913  1.0000
  As  As2       1.0  0.004918581311524946  0.007035909812678724  0.9998278920947301  1.0000
  As  As3       1.0  0.0008948471979176553  0.008074161407039877  5.604297552760261e-05  1.0000
  As  As4       1.0  0.009973674151718969  0.0010661725203599064  2.7545762553408182e-05  1.0000
  As  As5       1.0  0.009118788095724509  0.007081372310997931  0.9999451450950276  1.0000
  As  As6       1.0  0.002311657428738847  0.0019138373207915314  0.9997501339636911  1.0000
  As  As7       1.0  0.005177971282992945  0.0025739889852912294  0.999530865449467  1.0000
  As  As8       1.0  0.003893095202259684  0.008163083943192926  0.9994702284684085  1.0000
  As  As9       1.0  0.001726306412690532  0.006698039234112229  0.9996778145596612  1.0000
  As  As10      1.0  0.008455871751754895  0.0029279217140301475  0.9996681222760344  1.0000
  As  As11      1.0  0.007933629092719025  0.007874620949978949  0.9995802312630794  1.0000
  As  As12      1.0  0.0011374372988251157  0.002862451615321807  0.9994208626520128  1.0000
  As  As13      1.0  0.004066860353468062  0.0036850997753144466  0.9991860222341  1.0000
  As  As14      1.0  0.002781984085317822  0.009274195235585073  0.999125385548948  1.0000
  As  As15      1.0  0.0006151952488944257  0.007809150549701963  0.9993329716401191  1.0000
  As  As16      1.0  0.007344760447396055  0.004039033099212646  0.9993232790626344  1.0000
  As  As17      1.0  0.006822518538028098  0.008985731964000038  0.9992353883445986  1.0000
  As  As18      1.0  2.632609988832587e-05  0.003973562538731156  0.9990760194361764  1.0000
  Si  Si1       1.0  0.009426512531184986  0.008198539987295084  0.9997476442486078  1.0000
  Si  Si2       1.0  0.0022122447161846033  0.00039322205380681717  0.999929215662083  1.0000
  Si  Si3       1.0  0.008708358406226644  0.000929067094291706  0.9998224904739494  1.0000
  Si  Si4       1.0  0.002513706800716246  0.007773290131612971  0.9998677036072109  1.0000
  Si  Si5       1.0  0.006711046667391466  0.009106357721371744  0.9999471336709534  1.0000
  Si  Si6       1.0  0.0047192146261817525  0.008859667238007277  1.9962127917272586e-05  1.0000
  Si  Si7       1.0  0.008330241652873577  0.00931133916461781  0.9994064324163734  1.0000
  Si  Si8       1.0  0.0007408251135045202  0.0014257336246808162  0.9995946615019919  1.0000
  Si  Si9       1.0  0.007452481729453414  0.0020734617649867384  0.9994770367054999  1.0000
  Si  Si10      1.0  0.0016185853180501514  0.00866361088512636  0.9995240569197422  1.0000
  Si  Si11      1.0  0.00597950759664287  0.00022527783348368744  0.9996637327368161  1.0000
  Si  Si12      1.0  0.0042026701929686  0.00940068370981797  0.9996822041008464  1.0000
  Si  Si13      1.0  0.007219130348514737  0.00042245076278117047  0.9990615894685876  1.0000
  Si  Si14      1.0  0.00962971451758186  0.00253684447890121  0.9992498183297792  1.0000
  Si  Si15      1.0  0.006341370425094573  0.0031845731501692373  0.9991321937857129  1.0000
  Si  Si16      1.0  0.000507474013691311  0.009774721451151706  0.9991792139947151  1.0000
  Si  Si17      1.0  0.004868396667117986  0.0013363890330854815  0.9993188898176822  1.0000
  Si  Si18      1.0  0.0030915588886097595  0.0005117953079813289  0.9993373608594476  1.0000
