data_image0
_chemical_formula_structural       Sb12V15H
_chemical_formula_sum              "Sb12 V15 H1"
_cell_length_a       7.236580494863614
_cell_length_b       7.236580369281462
_cell_length_c       102.69010925292969
_cell_angle_alpha    88.90800037636964
_cell_angle_beta     88.90800039532228
_cell_angle_gamma    86.72303377562619

_space_group_name_H-M_alt    "P 1"
_space_group_IT_number       1

loop_
  _space_group_symop_operation_xyz
  'x, y, z'

loop_
  _atom_site_type_symbol
  _atom_site_label
  _atom_site_symmetry_multiplicity
  _atom_site_fract_x
  _atom_site_fract_y
  _atom_site_fract_z
  _atom_site_occupancy
  Sb  Sb1       1.0  0.0006108837726250237  0.006256566466470028  0.9992868430282313  1.0000
  Sb  Sb2       1.0  0.006058537868878786  0.007163949526432181  0.9991744517265073  1.0000
  Sb  Sb3       1.0  0.0020983378926579138  0.0006828685741621904  0.9993591098964094  1.0000
  Sb  Sb4       1.0  0.007545991674437697  0.0015902515051961724  0.9992467185952809  1.0000
  Sb  Sb5       1.0  0.0016108837849446043  0.007256566367453193  0.9996051804168666  1.0000
  Sb  Sb6       1.0  0.007058537816838429  0.008163949427415346  0.999492788825013  1.0000
  Sb  Sb7       1.0  0.0030983379620117203  0.0016828686040735261  0.9996774475750112  1.0000
  Sb  Sb8       1.0  0.008545991615071627  0.0025902515351075082  0.9995650559838395  1.0000
  Sb  Sb9       1.0  0.0026590884069219297  0.007961666799734292  0.999956400045777  1.0000
  Sb  Sb10      1.0  0.008355402827663734  0.00939128682543378  0.9997868795861768  1.0000
  Sb  Sb11      1.0  0.004445572839480529  0.0030168475206415447  4.576189633831033e-07  1.0000
  Sb  Sb12      1.0  0.009389116312491513  0.0037722750645276214  0.9999033656445407  1.0000
  V   V1        1.0  0.0040784376876885345  0.003923409050297186  0.9992667808117177  1.0000
  V   V2        1.0  0.007357446451485764  0.004918973822193092  0.9993680374786563  1.0000
  V   V3        1.0  0.004370095405874354  0.0005766515516160901  0.9991439572435928  1.0000
  V   V4        1.0  0.0037867802159539  0.007270166742370538  0.9993896043792518  1.0000
  V   V5        1.0  0.0007994288448799428  0.002927844536257622  0.9991655241445387  1.0000
  V   V6        1.0  0.005078437635648177  0.00492340895128035  0.9995851184906556  1.0000
  V   V7        1.0  0.008357446399445407  0.005918973723176257  0.9996863745771621  1.0000
  V   V8        1.0  0.0053700953428454275  0.0015766516459915112  0.9994622949222858  1.0000
  V   V9        1.0  0.004786780421353296  0.008270166643353703  0.9997079414774118  1.0000
  V   V10       1.0  0.0017994288571995237  0.003927844437240786  0.9994838618233902  1.0000
  V   V11       1.0  0.006090589180442856  0.006176726407209112  0.9998818761396687  1.0000
  V   V12       1.0  0.00883595483664397  0.007207238964887244  0.9999820931852166  1.0000
  V   V13       1.0  0.006325071235238988  0.0025932596871965754  0.9997748397422439  1.0000
  V   V14       1.0  0.005849346164887121  0.009423348683033182  0.999972930357743  1.0000
  V   V15       1.0  0.0027683788792491042  0.004951850505834105  0.9997985748762186  1.0000
  H   H1        1.0  0.007857093781190963  0.0031827672469339273  0.99998517338728  1.0000
