data_image0
_chemical_formula_structural       COCo24
_chemical_formula_sum              "C1 O1 Co24"
_cell_length_a       8.561572074890137
_cell_length_b       4.690155177841973
_cell_length_c       99.65815734863281
_cell_angle_alpha    105.27658316306774
_cell_angle_beta     90.0
_cell_angle_gamma    62.84761188179813

_space_group_name_H-M_alt    "P 1"
_space_group_IT_number       1

loop_
  _space_group_symop_operation_xyz
  'x, y, z'

loop_
  _atom_site_type_symbol
  _atom_site_label
  _atom_site_symmetry_multiplicity
  _atom_site_fract_x
  _atom_site_fract_y
  _atom_site_fract_z
  _atom_site_occupancy
  C   C1        1.0  0.004468527920491408  0.008201499955469859  0.00015115196862301836  1.0000
  O   O1        1.0  0.004468527920491408  0.008201499955469859  0.0002715638309125803  1.0000
  Co  Co1       1.0  0.0002089462238507222  0.0018175730435612434  0.9995326474821984  1.0000
  Co  Co2       1.0  0.0027089461651098523  0.0018175730435612434  0.9994086479711783  1.0000
  Co  Co3       1.0  0.002292279367185699  0.0068175731276720695  0.9995946472507131  1.0000
  Co  Co4       1.0  0.004792279471613912  0.0068175731276720695  0.9994706477396932  1.0000
  Co  Co5       1.0  0.0002089462238507222  0.0018175730435612434  0.9997806465042383  1.0000
  Co  Co6       1.0  0.0027089461651098523  0.0018175730435612434  0.9996566469932183  1.0000
  Co  Co7       1.0  0.002307131886468514  0.006816637628369569  0.9998407548726619  1.0000
  Co  Co8       1.0  0.004792279471613912  0.0068175731276720695  0.999718646761733  1.0000
  Co  Co9       1.0  0.00020772036422439017  0.0018318811128758019  2.271524060685539e-05  1.0000
  Co  Co10      1.0  0.002678691543342874  0.0017985002127517931  0.9999065372216968  1.0000
  Co  Co11      1.0  0.0023541290656513515  0.00670066608821346  6.947539722012192e-05  1.0000
  Co  Co12      1.0  0.004790193570155594  0.0069148356163429014  0.999969192455036  1.0000
  Co  Co13      1.0  0.0052089462695380645  0.0018175730435612434  0.9995326474821984  1.0000
  Co  Co14      1.0  0.0077089463739662785  0.0018175730435612434  0.9994086479711783  1.0000
  Co  Co15      1.0  0.007292279140924571  0.0068175731276720695  0.9995946472507131  1.0000
  Co  Co16      1.0  0.009792279245352782  0.0068175731276720695  0.9994706477396932  1.0000
  Co  Co17      1.0  0.0052089462695380645  0.0018175730435612434  0.9997806465042383  1.0000
  Co  Co18      1.0  0.0077089463739662785  0.0018175730435612434  0.9996566469932183  1.0000
  Co  Co19      1.0  0.00730713209532494  0.006816637628369569  0.9998407548726619  1.0000
  Co  Co20      1.0  0.009792279245352782  0.0068175731276720695  0.999718646761733  1.0000
  Co  Co21      1.0  0.005207720192352956  0.0018318811128758019  2.271524060685539e-05  1.0000
  Co  Co22      1.0  0.007678691099522969  0.0017985002127517931  0.9999065372216968  1.0000
  Co  Co23      1.0  0.007354128404272671  0.00670066608821346  6.947539722012192e-05  1.0000
  Co  Co24      1.0  0.009790193779012019  0.0069148356163429014  0.999969192455036  1.0000
