data_image0
_chemical_formula_structural       HCu2Au2Se8Cu2Au2Se8
_chemical_formula_sum              "H1 Cu4 Au4 Se16"
_cell_length_a       7.614774703979492
_cell_length_b       8.297984629500169
_cell_length_c       101.50651550292969
_cell_angle_alpha    93.45901878650223
_cell_angle_beta     90.0
_cell_angle_gamma    90.0

_space_group_name_H-M_alt    "P 1"
_space_group_IT_number       1

loop_
  _space_group_symop_operation_xyz
  'x, y, z'

loop_
  _atom_site_type_symbol
  _atom_site_label
  _atom_site_symmetry_multiplicity
  _atom_site_fract_x
  _atom_site_fract_y
  _atom_site_fract_z
  _atom_site_occupancy
  H   H1        1.0  0.00631071595632631  0.00551908859405454  5.125563269913435e-05  1.0000
  Cu  Cu1       1.0  0.002513816368193676  0.0035191945535666585  0.999401652024779  1.0000
  Cu  Cu2       1.0  0.007513816319271805  0.006701990863698727  0.9994280450513868  1.0000
  Au  Au1       1.0  0.005013816221428062  0.00011059260125284305  0.9996365547551981  1.0000
  Au  Au2       1.0  1.3816499671205885e-05  0.00011059260125284305  0.9996365547551981  1.0000
  Se  Se1       1.0  4.1449499013617655e-05  0.0031743233091439524  0.9992357366845169  1.0000
  Se  Se2       1.0  0.005041449251346643  0.007046862108121433  0.999593960685249  1.0000
  Se  Se3       1.0  0.009986183876415682  0.007046862108121433  0.999593960685249  1.0000
  Se  Se4       1.0  0.004986183680728195  0.0031743233091439524  0.9992357366845169  1.0000
  Se  Se5       1.0  0.007513816319271805  0.003777131521541894  0.9993836852077022  1.0000
  Se  Se6       1.0  0.002513816368193676  0.006444053895723491  0.9994460118684637  1.0000
  Se  Se7       1.0  0.007513816319271805  0.00944119438134872  0.9993494551961455  1.0000
  Se  Se8       1.0  0.002513816368193676  0.0007799912045761153  0.9994802418808523  1.0000
  Cu  Cu3       1.0  0.002513815878974961  0.00328115152986696  0.999843178433055  1.0000
  Cu  Cu4       1.0  0.007513815830053089  0.006726489210947661  0.9998655851010755  1.0000
  Au  Au3       1.0  0.004426130009129996  0.009889394949993184  3.5357103026019763e-05  1.0000
  Au  Au4       1.0  0.0006015141015924891  0.009889407543232085  3.535892673959008e-05  1.0000
  Se  Se9       1.0  4.1449499013617655e-05  0.0031743233091439524  0.9996791497481107  1.0000
  Se  Se10      1.0  0.005107614614943385  0.006985872602362451  3.445548847599897e-05  1.0000
  Se  Se11      1.0  0.00992001215297564  0.006985857310572357  3.4456000253241076e-05  1.0000
  Se  Se12      1.0  0.004986183680728195  0.0031743233091439524  0.9996791497481107  1.0000
  Se  Se13      1.0  0.00751381680849052  0.0037999698100484778  0.9998246797890611  1.0000
  Se  Se14      1.0  0.0025138205265527566  0.0062115638157416  0.9999044529553975  1.0000
  Se  Se15      1.0  0.007513815830053089  0.009487728198124261  0.9997941923173405  1.0000
  Se  Se16      1.0  0.002513809519131661  0.002297233229072829  6.320790523908128e-05  1.0000
