data_image0
_chemical_formula_structural       COCa6
_chemical_formula_sum              "C1 O1 Ca6"
_cell_length_a       5.618207931518555
_cell_length_b       6.8808710065318195
_cell_length_c       100.25497436523438
_cell_angle_alpha    94.34775327255112
_cell_angle_beta     90.0
_cell_angle_gamma    114.09484383314748

_space_group_name_H-M_alt    "P 1"
_space_group_IT_number       1

loop_
  _space_group_symop_operation_xyz
  'x, y, z'

loop_
  _atom_site_type_symbol
  _atom_site_label
  _atom_site_symmetry_multiplicity
  _atom_site_fract_x
  _atom_site_fract_y
  _atom_site_fract_z
  _atom_site_occupancy
  C   C1        1.0  0.0013826679695926071  0.001932002582644274  0.00020885451591511558  1.0000
  O   O1        1.0  0.0013826679695926071  0.001932002582644274  0.0003285495674043147  1.0000
  Ca  Ca1       1.0  0.0020833334084174133  0.0033333334602938867  0.9997571881266616  1.0000
  Ca  Ca2       1.0  0.00791666645687282  0.00500000019044083  0.9995057047029237  1.0000
  Ca  Ca3       1.0  0.006250000058263118  0.0016666667301469434  8.671847664806628e-06  1.0000
  Ca  Ca4       1.0  0.005000000227616719  0.009166667015808188  0.9996314464900998  1.0000
  Ca  Ca5       1.0  0.0008333333608072058  0.0008333333650734717  0.9993799629157476  1.0000
  Ca  Ca6       1.0  0.009166666504483029  0.007500000285661245  0.9998829299138378  1.0000
