data_image0
_chemical_formula_structural       HGa6Pt3Ga6Pt3Ga6Pt3Ga6Pt3
_chemical_formula_sum              "H1 Ga24 Pt12"
_cell_length_a       8.544017791748047
_cell_length_b       8.54401810078085
_cell_length_c       38.60727310180664
_cell_angle_alpha    90.0
_cell_angle_beta     90.0
_cell_angle_gamma    119.99999880352283

_space_group_name_H-M_alt    "P 1"
_space_group_IT_number       1

loop_
  _space_group_symop_operation_xyz
  'x, y, z'

loop_
  _atom_site_type_symbol
  _atom_site_label
  _atom_site_symmetry_multiplicity
  _atom_site_fract_x
  _atom_site_fract_y
  _atom_site_fract_z
  _atom_site_occupancy
  H   H1        1.0  0.0008333331117947362  0.005000000120831055  0.00010955732343181007  1.0000
  Ga  Ga1       1.0  6.207478595627034e-10  0.0008333330807628648  0.9981979719063668  1.0000
  Ga  Ga2       1.0  0.0033333340806310464  0.0024999998086841636  0.9991014493921595  1.0000
  Ga  Ga3       1.0  0.001666667124491169  0.004166666851269667  0.0  1.0000
  Ga  Ga4       1.0  0.0016666673087713385  0.004166666347806939  0.9986497104562793  1.0000
  Ga  Ga5       1.0  0.00999999991892753  0.0008333339618226389  0.9995808664592445  1.0000
  Ga  Ga6       1.0  0.0033333340806310464  0.0024999998086841636  0.9977462329704866  1.0000
  Pt  Pt1       1.0  0.0016666669545119678  0.004166666347806939  0.9993053217877729  1.0000
  Pt  Pt2       1.0  6.207478595627034e-10  0.0008333330807628648  0.9975203635025465  1.0000
  Pt  Pt3       1.0  0.0033333340806310464  0.0024999998086841636  0.9984238409883393  1.0000
  Ga  Ga7       1.0  5.537744291917852e-10  0.005833333138661079  0.9981979719063668  1.0000
  Ga  Ga8       1.0  0.0033333338647569127  0.0074999996777838545  0.9991014493921595  1.0000
  Ga  Ga9       1.0  0.0016666669086170356  0.009166666720369358  0.0  1.0000
  Ga  Ga10      1.0  0.0016666668411658412  0.009166665713443902  0.9986497104562793  1.0000
  Ga  Ga11      1.0  0.009999999445149808  0.005833333642123807  0.9995808664592445  1.0000
  Ga  Ga12      1.0  0.0033333338647569127  0.0074999996777838545  0.9977462329704866  1.0000
  Pt  Pt4       1.0  0.0016666671266228022  0.009166666720369358  0.9993053217877729  1.0000
  Pt  Pt5       1.0  5.537744291917852e-10  0.005833333138661079  0.9975203635025465  1.0000
  Pt  Pt6       1.0  0.0033333338647569127  0.0074999996777838545  0.9984238409883393  1.0000
  Ga  Ga13      1.0  0.005000000594587168  0.0008333330807628648  0.9981979719063668  1.0000
  Ga  Ga14      1.0  0.008333334272476121  0.0024999998086841636  0.9991014493921595  1.0000
  Ga  Ga15      1.0  0.006666667043829036  0.004166666851269667  0.0  1.0000
  Ga  Ga16      1.0  0.0066666672281092045  0.004166666347806939  0.9986497104562793  1.0000
  Ga  Ga17      1.0  0.004999999291070921  0.0008333339618226389  0.9995808664592445  1.0000
  Ga  Ga18      1.0  0.008333334272476121  0.0024999998086841636  0.9977462329704866  1.0000
  Pt  Pt7       1.0  0.0066666672281092045  0.004166666347806939  0.9993053217877729  1.0000
  Pt  Pt8       1.0  0.005000000594587168  0.0008333330807628648  0.9975203635025465  1.0000
  Pt  Pt9       1.0  0.008333334272476121  0.0024999998086841636  0.9984238409883393  1.0000
  Ga  Ga19      1.0  0.005000000745619504  0.005833333138661079  0.9981979719063668  1.0000
  Ga  Ga20      1.0  0.008333333893097664  0.0074999996777838545  0.9991014493921595  1.0000
  Ga  Ga21      1.0  0.00666666710046211  0.009166666720369358  0.0  1.0000
  Ga  Ga22      1.0  0.006666667033010916  0.009166665713443902  0.9986497104562793  1.0000
  Ga  Ga23      1.0  0.004999999253304735  0.005833333642123807  0.9995808664592445  1.0000
  Ga  Ga24      1.0  0.008333333893097664  0.0074999996777838545  0.9977462329704866  1.0000
  Pt  Pt10      1.0  0.00666666710046211  0.009166666720369358  0.9993053217877729  1.0000
  Pt  Pt11      1.0  0.005000000745619504  0.005833333138661079  0.9975203635025465  1.0000
  Pt  Pt12      1.0  0.008333333893097664  0.0074999996777838545  0.9984238409883393  1.0000
