data_image0
_chemical_formula_structural       HAl3As3Pt15Al3As3Pt15
_chemical_formula_sum              "H1 Al6 As6 Pt30"
_cell_length_a       7.075778007507324
_cell_length_b       8.966565178701599
_cell_length_c       104.02571868896484
_cell_angle_alpha    71.56505117707799
_cell_angle_beta     90.0
_cell_angle_gamma    90.0

_space_group_name_H-M_alt    "P 1"
_space_group_IT_number       1

loop_
  _space_group_symop_operation_xyz
  'x, y, z'

loop_
  _atom_site_type_symbol
  _atom_site_label
  _atom_site_symmetry_multiplicity
  _atom_site_fract_x
  _atom_site_fract_y
  _atom_site_fract_z
  _atom_site_occupancy
  H   H1        1.0  1.2999999825096343e-09  0.003470410910127641  0.9999054054131278  1.0000
  Al  Al1       1.0  1.0000000408590477e-10  0.006762395754609576  0.9988154777080134  1.0000
  Al  Al2       1.0  1.0000000408590477e-10  0.003429062543898918  0.999178910460008  1.0000
  Al  Al3       1.0  1.0000000408590477e-10  9.572934687382668e-05  0.9989971941015433  1.0000
  As  As1       1.0  0.00500000027377215  0.006762395754609576  0.9990880522630565  1.0000
  As  As2       1.0  0.00500000027377215  0.003429062543898918  0.9989063359049649  1.0000
  As  As3       1.0  0.00500000027377215  9.572934687382668e-05  0.9992697686565863  1.0000
  Pt  Pt1       1.0  0.007267686051509464  0.005095729368223311  0.9989971940780421  1.0000
  Pt  Pt2       1.0  0.007267686051509464  0.0017623959385435891  0.998815477725919  1.0000
  Pt  Pt3       1.0  0.007267686051509464  0.008429062578933968  0.9991789104361338  1.0000
  Pt  Pt4       1.0  0.0027323142327923843  0.005095729368223311  0.9989971940780421  1.0000
  Pt  Pt5       1.0  0.0027323142327923843  0.0017623959385435891  0.998815477725919  1.0000
  Pt  Pt6       1.0  0.0027323142327923843  0.008429062578933968  0.9991789104361338  1.0000
  Pt  Pt7       1.0  0.007267686051509464  0.008429062578933968  0.9989063358810907  1.0000
  Pt  Pt8       1.0  0.007267686051509464  0.005095729368223311  0.9992697686330853  1.0000
  Pt  Pt9       1.0  0.007267686051509464  0.0017623959385435891  0.9990880522809621  1.0000
  Pt  Pt10      1.0  0.0027323142327923843  0.008429062578933968  0.9989063358810907  1.0000
  Pt  Pt11      1.0  0.0027323142327923843  0.005095729368223311  0.9992697686330853  1.0000
  Pt  Pt12      1.0  0.0027323142327923843  0.0017623959385435891  0.9990880522809621  1.0000
  Pt  Pt13      1.0  1.0000000408590477e-10  0.006762395754609576  0.9990880522630565  1.0000
  Pt  Pt14      1.0  1.0000000408590477e-10  0.003429062543898918  0.9989063359049649  1.0000
  Pt  Pt15      1.0  1.0000000408590477e-10  9.572934687382668e-05  0.9992697686565863  1.0000
  Al  Al4       1.0  1.0000000408590477e-10  0.006762395754609576  0.9993606268180996  1.0000
  Al  Al5       1.0  6.1000004296806285e-09  0.0029137937399988947  0.9997141212697259  1.0000
  Al  Al6       1.0  0.0100000005475443  0.00010529544835786657  0.9995252884234456  1.0000
  As  As4       1.0  0.0050000008002570534  0.005899883619869594  0.9997154256584438  1.0000
  As  As5       1.0  0.00500000027377215  0.003429062543898918  0.999451485015051  1.0000
  As  As6       1.0  0.0050000008002570534  0.009904270298943713  0.9998240607474531  1.0000
  Pt  Pt16      1.0  0.007186698458324163  0.0051163089567021714  0.9995411319086424  1.0000
  Pt  Pt17      1.0  0.007267686051509464  0.0017623959385435891  0.9993606268360052  1.0000
  Pt  Pt18      1.0  0.006956600863859799  0.008247516204131132  0.999720336561641  1.0000
  Pt  Pt19      1.0  0.0028133026157050396  0.005116306767011535  0.9995411319683277  1.0000
  Pt  Pt20      1.0  0.0027323142327923843  0.0017623959385435891  0.9993606268360052  1.0000
  Pt  Pt21      1.0  0.0030433970512599856  0.008247513576502368  0.9997203372062434  1.0000
  Pt  Pt22      1.0  0.007267686051509464  0.008429062578933968  0.9994514849911769  1.0000
  Pt  Pt23      1.0  0.008077287158243067  0.004714553715402608  0.9998098818587359  1.0000
  Pt  Pt24      1.0  0.007050661603673352  0.0016647009200708685  0.9996397399450861  1.0000
  Pt  Pt25      1.0  0.0027323142327923843  0.008429062578933968  0.9994514849911769  1.0000
  Pt  Pt26      1.0  0.0019227107568767184  0.0047145624741651545  0.9998098821929741  1.0000
  Pt  Pt27      1.0  0.0029493397335983024  0.0016646952268752134  0.9996397395272882  1.0000
  Pt  Pt28      1.0  0.009999998441604688  0.006933938746708247  0.9996234775940577  1.0000
  Pt  Pt29      1.0  1.0000000408590477e-10  0.003429062543898918  0.999451485015051  1.0000
  Pt  Pt30      1.0  0.009999999494574493  0.00985138839419398  0.9997651043637336  1.0000
