data_image0
_chemical_formula_structural       COCa4Co8Ge8
_chemical_formula_sum              "C1 O1 Ca4 Co8 Ge8"
_cell_length_a       5.957645542258864
_cell_length_b       5.6726298332214355
_cell_length_c       104.03578186035156
_cell_angle_alpha    90.0
_cell_angle_beta     90.0
_cell_angle_gamma    118.42968139352917

_space_group_name_H-M_alt    "P 1"
_space_group_IT_number       1

loop_
  _space_group_symop_operation_xyz
  'x, y, z'

loop_
  _atom_site_type_symbol
  _atom_site_label
  _atom_site_symmetry_multiplicity
  _atom_site_fract_x
  _atom_site_fract_y
  _atom_site_fract_z
  _atom_site_occupancy
  C   C1        1.0  0.006287967321351225  0.005644692293508645  0.00016579001737143648  1.0000
  O   O1        1.0  0.006287967321351225  0.005644692293508645  0.00028113460842913606  1.0000
  Ca  Ca1       1.0  0.0012849143758133803  0.000643237362904036  0.9991814842999812  1.0000
  Ca  Ca2       1.0  0.0012849143758133803  0.005643237441869938  0.999454113271787  1.0000
  Ca  Ca3       1.0  0.0012858117164495514  0.0006436694832825246  0.9997225068994773  1.0000
  Ca  Ca4       1.0  0.001286708079396836  0.005644107368424744  0.0  1.0000
  Co  Co1       1.0  0.006284914798886025  0.0006432375351979029  0.9990451701005406  1.0000
  Co  Co2       1.0  0.006284914798886025  0.005643237614003475  0.9993177987858841  1.0000
  Co  Co3       1.0  0.006284914798886025  0.005643237614003475  0.9990451701005406  1.0000
  Co  Co4       1.0  0.006284914798886025  0.0006432375351979029  0.9993177987858841  1.0000
  Co  Co5       1.0  0.006284914798886025  0.0006432375351979029  0.9995904277576899  1.0000
  Co  Co6       1.0  0.006286219569145434  0.0056445041900559205  0.9998691125411021  1.0000
  Co  Co7       1.0  0.006284914798886025  0.005643237614003475  0.9995904277576899  1.0000
  Co  Co8       1.0  0.006286134243569887  0.0006432498128010328  0.999869181292038  1.0000
  Ge  Ge1       1.0  0.008655348168394368  0.00432845425919453  0.9991814842999812  1.0000
  Ge  Ge2       1.0  0.008655348168394368  0.009328454338160432  0.999454113271787  1.0000
  Ge  Ge3       1.0  0.003914480362807987  0.00195802035640134  0.999454113271787  1.0000
  Ge  Ge4       1.0  0.003914480362807987  0.006958020435367242  0.9991814842999812  1.0000
  Ge  Ge5       1.0  0.008615019035111996  0.0043078795425577805  0.9997288394336008  1.0000
  Ge  Ge6       1.0  0.008715086025927871  0.00935676291661183  0.999999148061319  1.0000
  Ge  Ge7       1.0  0.0038608486167745803  0.001932621533483344  0.9999994597322285  1.0000
  Ge  Ge8       1.0  0.003957458499687867  0.0069799186360657945  0.9997287420364416  1.0000
