data_image0
_chemical_formula_structural       COCa4Zn8Si8Ca4Zn8Si8
_chemical_formula_sum              "C1 O1 Ca8 Zn16 Si16"
_cell_length_a       6.071447372436523
_cell_length_b       11.137150246355896
_cell_length_c       106.42868041992188
_cell_angle_alpha    105.81763196188147
_cell_angle_beta     90.0
_cell_angle_gamma    74.18236803811853

_space_group_name_H-M_alt    "P 1"
_space_group_IT_number       1

loop_
  _space_group_symop_operation_xyz
  'x, y, z'

loop_
  _atom_site_type_symbol
  _atom_site_label
  _atom_site_symmetry_multiplicity
  _atom_site_fract_x
  _atom_site_fract_y
  _atom_site_fract_z
  _atom_site_occupancy
  C   C1        1.0  0.002228444351679548  0.006066007895631162  6.027284290469762e-05  1.0000
  O   O1        1.0  0.002228444351679548  0.006066007895631162  0.0001730240737449522  1.0000
  Ca  Ca1       1.0  2.2101649605806186e-05  0.0004721010480142379  0.9994636168326789  1.0000
  Ca  Ca2       1.0  0.005022101648838837  0.0004721010480142379  0.9991783812973817  1.0000
  Ca  Ca3       1.0  0.007522101289535273  0.005472100883072895  0.9993209990379238  1.0000
  Ca  Ca4       1.0  0.0025221017313095083  0.005472100883072895  0.9990357635026266  1.0000
  Zn  Zn1       1.0  0.006272101503172222  0.002972100897573233  0.9991070723980654  1.0000
  Zn  Zn2       1.0  0.0012721016381587937  0.002972100897573233  0.9993923079333626  1.0000
  Zn  Zn3       1.0  0.0012721016381587937  0.002972100897573233  0.9991070723980654  1.0000
  Zn  Zn4       1.0  0.006272101503172222  0.002972100897573233  0.9993923079333626  1.0000
  Zn  Zn5       1.0  0.008772101075898327  0.007972100868572557  0.9992496901424851  1.0000
  Zn  Zn6       1.0  0.00377210151767256  0.007972100868572557  0.9989644546071879  1.0000
  Zn  Zn7       1.0  0.00377210151767256  0.007972100868572557  0.9992496901424851  1.0000
  Zn  Zn8       1.0  0.008772101075898327  0.007972100868572557  0.9989644546071879  1.0000
  Si  Si1       1.0  0.009445014110615674  0.001626275240912093  0.9992113024415843  1.0000
  Si  Si2       1.0  0.004445014552389909  0.001626275240912093  0.9994965379768815  1.0000
  Si  Si3       1.0  0.008099188272700312  0.0043179269167428185  0.9990028423648865  1.0000
  Si  Si4       1.0  0.003099188714474546  0.0043179269167428185  0.9992880779001837  1.0000
  Si  Si5       1.0  0.006945014125116013  0.006626275211911417  0.9990686846507068  1.0000
  Si  Si6       1.0  0.0019450145668902475  0.006626275211911417  0.999353920186004  1.0000
  Si  Si7       1.0  0.005599188468454874  0.009317926525233696  0.9994306956342633  1.0000
  Si  Si8       1.0  0.000599188910229108  0.009317926525233696  0.9991454600989661  1.0000
  Ca  Ca5       1.0  0.009977898320417067  0.0005648153472457385  1.8674415429313075e-05  1.0000
  Ca  Ca6       1.0  0.005022101648838837  0.0004721010480142379  0.9997488523679762  1.0000
  Ca  Ca7       1.0  0.007467193492390615  0.005588509957811209  0.9998905773044658  1.0000
  Ca  Ca8       1.0  0.0025221017313095083  0.005472100883072895  0.9996062345732211  1.0000
  Zn  Zn9       1.0  0.006272101503172222  0.002972100897573233  0.9996775434686599  1.0000
  Zn  Zn10      1.0  0.0008977191038431848  0.0031709309801550927  0.9999758025889754  1.0000
  Zn  Zn11      1.0  0.0012721016381587937  0.002972100897573233  0.9996775434686599  1.0000
  Zn  Zn12      1.0  0.006453649284861855  0.0031725006417269515  0.9999760472966698  1.0000
  Zn  Zn13      1.0  0.008738074950536879  0.00800547629619332  0.9998293228700698  1.0000
  Zn  Zn14      1.0  0.00377210151767256  0.007972100868572557  0.9995349256777823  1.0000
  Zn  Zn15      1.0  0.0037797576092019106  0.008006275989825541  0.9998293652816777  1.0000
  Zn  Zn16      1.0  0.008772101075898327  0.007972100868572557  0.9995349256777823  1.0000
  Si  Si9       1.0  0.009445014110615674  0.001626275240912093  0.9997817735121788  1.0000
  Si  Si10      1.0  0.004375756304861116  0.0017691149877139217  5.0537603983385774e-05  1.0000
  Si  Si11      1.0  0.008099188272700312  0.0043179269167428185  0.999573313435481  1.0000
  Si  Si12      1.0  0.003065469398458285  0.004392154146177883  0.9998702910949757  1.0000
  Si  Si13      1.0  0.006945014125116013  0.006626275211911417  0.9996391557213012  1.0000
  Si  Si14      1.0  0.0019251743410124108  0.006672156455907697  0.9999215074701001  1.0000
  Si  Si15      1.0  0.005496984961465043  0.009527898667416632  0.9999991926031612  1.0000
  Si  Si16      1.0  0.000599188910229108  0.009317926525233696  0.9997159311695606  1.0000
