data_image0
_chemical_formula_structural       COCu6Ga14Se24
_chemical_formula_sum              "C1 O1 Cu6 Ga14 Se24"
_cell_length_a       13.488758251997908
_cell_length_b       10.787196343979861
_cell_length_c       101.7161865234375
_cell_angle_alpha    81.11809515318821
_cell_angle_beta     84.21469652886913
_cell_angle_gamma    98.06564308133704

_space_group_name_H-M_alt    "P 1"
_space_group_IT_number       1

loop_
  _space_group_symop_operation_xyz
  'x, y, z'

loop_
  _atom_site_type_symbol
  _atom_site_label
  _atom_site_symmetry_multiplicity
  _atom_site_fract_x
  _atom_site_fract_y
  _atom_site_fract_z
  _atom_site_occupancy
  C   C1        1.0  0.007882959183034517  0.0006924054749855457  0.9998832876567565  1.0000
  O   O1        1.0  0.007882959183034517  0.0006924054749855457  1.2626332494128987e-06  1.0000
  Cu  Cu1       1.0  0.0051776068033146045  0.0048489050708102385  0.9993666287077597  1.0000
  Cu  Cu2       1.0  0.0026145312991222628  0.009836780731302678  0.9991078459164068  1.0000
  Cu  Cu3       1.0  0.0026330466134644372  0.0023075518800534356  0.9993666957477854  1.0000
  Cu  Cu4       1.0  0.0056108498644441476  0.003364333474593639  0.9997044818168106  1.0000
  Cu  Cu5       1.0  0.0025552609821724694  0.008617676647948951  0.9995141198518954  1.0000
  Cu  Cu6       1.0  0.002904813731619277  0.0009986571105955711  0.9997083675295405  1.0000
  Ga  Ga1       1.0  0.000221797702526815  0.0035592427977184436  0.9992349648225702  1.0000
  Ga  Ga2       1.0  0.005208230620421733  0.008548568462972328  0.9992350248803741  1.0000
  Ga  Ga3       1.0  0.0077118775210696724  0.004735330688760606  0.9991037136373102  1.0000
  Ga  Ga4       1.0  0.007807082268777732  0.00741472599010229  0.999365306033239  1.0000
  Ga  Ga5       1.0  0.00025316099285341254  0.009816992509216688  0.9993643950210177  1.0000
  Ga  Ga6       1.0  0.002649929579727915  0.006146617454615608  0.9992382751066966  1.0000
  Ga  Ga7       1.0  0.005283420970088753  0.0024717777579602203  0.9991071412948638  1.0000
  Ga  Ga8       1.0  0.0009354782022344116  0.0022055297446242337  0.9995165978902346  1.0000
  Ga  Ga9       1.0  0.005343044128381771  0.007236042016635998  0.9995694295806752  1.0000
  Ga  Ga10      1.0  0.007865151238269676  0.003419392661641803  0.9994912659813795  1.0000
  Ga  Ga11      1.0  0.00801608973618934  0.006089611513882567  0.9997034618048892  1.0000
  Ga  Ga12      1.0  0.0004823579083788293  0.008583716618320827  0.9997146609805073  1.0000
  Ga  Ga13      1.0  0.0028407189067414028  0.004800347757716383  0.9995851719260594  1.0000
  Ga  Ga14      1.0  0.005380800682443178  0.001266119145310291  0.9995066522318342  1.0000
  Se  Se1       1.0  0.009608641809746202  0.0052813379312569905  0.999075634833776  1.0000
  Se  Se2       1.0  0.009593150528461979  0.007664168541064295  0.9993333635256764  1.0000
  Se  Se3       1.0  0.007094082974266988  0.009013605096617312  0.999205489875564  1.0000
  Se  Se4       1.0  0.009479439463163125  0.0014000916758141  0.999205513325291  1.0000
  Se  Se5       1.0  0.004513576264273886  0.00018326844244005532  0.9990755722607275  1.0000
  Se  Se6       1.0  0.007092991555865076  0.0026287331173582553  0.9990727878678102  1.0000
  Se  Se7       1.0  0.004495794466317747  0.0026873896314907877  0.9993358699566377  1.0000
  Se  Se8       1.0  0.007049874624871454  0.005182927567174909  0.9993346529373262  1.0000
  Se  Se9       1.0  0.002090087888094664  0.0039052514903856607  0.9992033206096553  1.0000
  Se  Se10      1.0  0.004571646920656714  0.006372893807452112  0.9992030313951007  1.0000
  Se  Se11      1.0  0.0020119052751480073  0.007678407675924235  0.9990755060596317  1.0000
  Se  Se12      1.0  0.0020896554817314127  0.0001632189271696429  0.9993334162165953  1.0000
  Se  Se13      1.0  0.00977820245843069  0.0038987154965632958  0.9994717264095998  1.0000
  Se  Se14      1.0  0.009449936866196858  0.006569574946294339  0.999814362118745  1.0000
  Se  Se15      1.0  0.007125111645186263  0.007791810346992222  0.9996037523428501  1.0000
  Se  Se16      1.0  0.009656732819659616  0.00022658287602053605  0.9996021565324202  1.0000
  Se  Se17      1.0  0.004516896065533489  0.008948481296376062  0.999471956238583  1.0000
  Se  Se18      1.0  0.00716257749171867  0.0013919960838081858  0.9994455940456581  1.0000
  Se  Se19      1.0  0.004671103195689275  0.0013088977467937636  0.999732261827135  1.0000
  Se  Se20      1.0  0.007353215279701083  0.003857760186180743  0.9997243673590195  1.0000
  Se  Se21      1.0  0.001968886324399895  0.002735640721638231  0.9996972675626437  1.0000
  Se  Se22      1.0  0.00463228699300427  0.005016751800025552  0.999624882917898  1.0000
  Se  Se23      1.0  0.002034061181166215  0.00639386283011969  0.999474903777222  1.0000
  Se  Se24      1.0  0.002187056561370368  0.008804416423403572  0.9997515238283746  1.0000
