data_image0
_chemical_formula_structural       COCo6Se6
_chemical_formula_sum              "C1 O1 Co6 Se6"
_cell_length_a       5.252756595611572
_cell_length_b       6.8027882059053555
_cell_length_c       101.00287628173828
_cell_angle_alpha    69.24308678834758
_cell_angle_beta     90.0
_cell_angle_gamma    67.28958068947023

_space_group_name_H-M_alt    "P 1"
_space_group_IT_number       1

loop_
  _space_group_symop_operation_xyz
  'x, y, z'

loop_
  _atom_site_type_symbol
  _atom_site_label
  _atom_site_symmetry_multiplicity
  _atom_site_fract_x
  _atom_site_fract_y
  _atom_site_fract_z
  _atom_site_occupancy
  C   C1        1.0  0.003960717812184797  0.005425005154168272  0.00010867223942200607  1.0000
  O   O1        1.0  0.003960717812184797  0.005425005154168272  0.00022748038782143868  1.0000
  Co  Co1       1.0  0.007025678165011916  0.0066077093086130785  0.9994403898737871  1.0000
  Co  Co2       1.0  0.0004669297055306513  7.374205313058882e-05  0.9999447812476  1.0000
  Co  Co3       1.0  0.0037117060142093233  0.0033042687366876375  0.9996985190863202  1.0000
  Co  Co4       1.0  0.008660752734860895  0.003298372242159903  0.999698294546048  1.0000
  Co  Co5       1.0  0.0020256782075643194  0.0066077093086130785  0.9994403898737871  1.0000
  Co  Co6       1.0  0.005133327071359474  7.933085418868247e-05  0.999945211415575  1.0000
  Se  Se1       1.0  0.0028825451751827574  0.009923875840921586  0.9997631174971867  1.0000
  Se  Se2       1.0  0.0061849529203210395  0.0032891601951505964  0.9995049048849034  1.0000
  Se  Se3       1.0  0.00951828588864786  0.006622493464185424  0.9992491130976889  1.0000
  Se  Se4       1.0  0.009533070044220205  0.006592925153040733  0.9996316663548213  1.0000
  Se  Se5       1.0  0.0028664039676048235  0.009926258100583028  0.9993758745752809  1.0000
  Se  Se6       1.0  0.0063059595755898595  0.003073360583554726  0.9999010829194455  1.0000
