data_image0
_chemical_formula_structural       HGa3Rh3Ga3Rh3Ga3Rh3Ga3Rh3
_chemical_formula_sum              "H1 Ga12 Rh12"
_cell_length_a       6.101321220397949
_cell_length_b       6.821484429980271
_cell_length_c       100.19999694824219
_cell_angle_alpha    71.56505244360318
_cell_angle_beta     90.0
_cell_angle_gamma    90.0

_space_group_name_H-M_alt    "P 1"
_space_group_IT_number       1

loop_
  _space_group_symop_operation_xyz
  'x, y, z'

loop_
  _atom_site_type_symbol
  _atom_site_label
  _atom_site_symmetry_multiplicity
  _atom_site_fract_x
  _atom_site_fract_y
  _atom_site_fract_z
  _atom_site_occupancy
  H   H1        1.0  0.0024999997801944105  0.002657399024294833  2.4200245455740194e-05  1.0000
  Ga  Ga1       1.0  0.0  0.00677839770681636  0.9994074450689461  1.0000
  Ga  Ga2       1.0  0.0  0.0034450644348859  0.9992639225870071  1.0000
  Ga  Ga3       1.0  0.0  0.0001117311989336863  0.9995509675342475  1.0000
  Rh  Rh1       1.0  0.002499999932837181  0.00677839770681636  0.9991921613539692  1.0000
  Rh  Rh2       1.0  0.002499999932837181  0.0034450644348859  0.9994792063019841  1.0000
  Rh  Rh3       1.0  0.002499999932837181  0.0001117311989336863  0.9993356838192706  1.0000
  Ga  Ga4       1.0  0.009999999731348724  0.006616484086143614  0.9998575578804566  1.0000
  Ga  Ga5       1.0  0.009999999731348724  0.0034521345919915378  0.9996877569077489  1.0000
  Ga  Ga6       1.0  0.009999999120777642  0.0004716126724759127  0.9999708656636326  1.0000
  Rh  Rh4       1.0  0.002499999932837181  0.00677839770681636  0.999622728783923  1.0000
  Rh  Rh5       1.0  0.0024999997801944105  0.003503769707375028  0.9998918910925725  1.0000
  Rh  Rh6       1.0  0.0025000000854799513  0.009888268077184001  0.999772307390568  1.0000
  Ga  Ga7       1.0  0.004999999865674362  0.00677839770681636  0.9994074450689461  1.0000
  Ga  Ga8       1.0  0.004999999865674362  0.0034450644348859  0.9992639225870071  1.0000
  Ga  Ga9       1.0  0.004999999865674362  0.0001117311989336863  0.9995509675342475  1.0000
  Rh  Rh7       1.0  0.007499999951154313  0.00677839770681636  0.9991921613539692  1.0000
  Rh  Rh8       1.0  0.007499999951154313  0.0034450644348859  0.9994792063019841  1.0000
  Rh  Rh9       1.0  0.007499999951154313  0.0001117311989336863  0.9993356838192706  1.0000
  Ga  Ga10      1.0  0.004999999865674362  0.006616484086143614  0.9998575578804566  1.0000
  Ga  Ga11      1.0  0.004999999865674362  0.0034521345919915378  0.9996877569077489  1.0000
  Ga  Ga12      1.0  0.004999999560388821  0.0004716126724759127  0.9999708656636326  1.0000
  Rh  Rh10      1.0  0.007499999951154313  0.00677839770681636  0.999622728783923  1.0000
  Rh  Rh11      1.0  0.007499999340583231  0.003503769707375028  0.9998918910925725  1.0000
  Rh  Rh12      1.0  0.007499999951154313  0.009888268077184001  0.999772307390568  1.0000
