data_image0
_chemical_formula_structural       COCu9Au3Cu9Au3Cu9Au3Cu9Au3
_chemical_formula_sum              "C1 O1 Cu36 Au12"
_cell_length_a       8.552990802895431
_cell_length_b       7.650027751922607
_cell_length_c       102.4563217163086
_cell_angle_alpha    90.0
_cell_angle_beta     108.43494983304608
_cell_angle_gamma    90.0

_space_group_name_H-M_alt    "P 1"
_space_group_IT_number       1

loop_
  _space_group_symop_operation_xyz
  'x, y, z'

loop_
  _atom_site_type_symbol
  _atom_site_label
  _atom_site_symmetry_multiplicity
  _atom_site_fract_x
  _atom_site_fract_y
  _atom_site_fract_z
  _atom_site_occupancy
  C   C1        1.0  0.009504181187412798  0.003750000204525  0.0001472887713091733  1.0000
  O   O1        1.0  0.009504181187412798  0.003750000204525  0.00026441150725197836  1.0000
  Cu  Cu1       1.0  0.0071624868259892865  0.003750000204525  0.9999250940450902  1.0000
  Cu  Cu2       1.0  0.0038291532233088697  0.003750000204525  0.00010108390542373606  1.0000
  Cu  Cu3       1.0  0.0004958196780177461  0.003750000204525  0.999749104025319  1.0000
  Cu  Cu4       1.0  0.008829153627329495  0.001250000068175  0.00010108398590007094  1.0000
  Cu  Cu5       1.0  0.005495820024649078  0.001250000068175  0.9997491041042803  1.0000
  Cu  Cu6       1.0  0.0021624864219686613  0.001250000068175  0.9999250939646139  1.0000
  Cu  Cu7       1.0  0.0004958196780177461  0.003750000204525  1.308889629563156e-05  1.0000
  Cu  Cu8       1.0  0.0071624868259892865  0.003750000204525  0.9996611088832352  1.0000
  Cu  Cu9       1.0  0.0038291532233088697  0.003750000204525  0.9998370990344471  1.0000
  Au  Au1       1.0  0.008829153627329495  0.001250000068175  0.9998370991149235  1.0000
  Au  Au2       1.0  0.005495820024649078  0.001250000068175  1.3088975256975123e-05  1.0000
  Au  Au3       1.0  0.0021624864219686613  0.001250000068175  0.9996611090936373  1.0000
  Cu  Cu10      1.0  0.0071624868259892865  0.003750000204525  0.9993971237213803  1.0000
  Cu  Cu11      1.0  0.0038291532233088697  0.003750000204525  0.9995731138725922  1.0000
  Cu  Cu12      1.0  0.0004958196780177461  0.003750000204525  0.9992211337016091  1.0000
  Cu  Cu13      1.0  0.008829153627329495  0.001250000068175  0.9995731139530685  1.0000
  Cu  Cu14      1.0  0.005495820024649078  0.001250000068175  0.9992211337805705  1.0000
  Cu  Cu15      1.0  0.0021624864219686613  0.001250000068175  0.9993971239317824  1.0000
  Cu  Cu16      1.0  0.0004958196780177461  0.003750000204525  0.999485118863464  1.0000
  Cu  Cu17      1.0  0.0071624868259892865  0.003750000204525  0.9991331388504038  1.0000
  Cu  Cu18      1.0  0.0038291532233088697  0.003750000204525  0.9993091287107373  1.0000
  Au  Au4       1.0  0.008829153627329495  0.001250000068175  0.9993091287912136  1.0000
  Au  Au5       1.0  0.005495820024649078  0.001250000068175  0.9994851189424254  1.0000
  Au  Au6       1.0  0.0021624864219686613  0.001250000068175  0.9991331387699274  1.0000
  Cu  Cu19      1.0  0.0071624868259892865  0.008750000233742857  0.9999250940450902  1.0000
  Cu  Cu20      1.0  0.0038291532233088697  0.008750000233742857  0.00010108390542373606  1.0000
  Cu  Cu21      1.0  0.0004958196780177461  0.008750000233742857  0.999749104025319  1.0000
  Cu  Cu22      1.0  0.008829153627329495  0.006250000097392857  0.00010108398590007094  1.0000
  Cu  Cu23      1.0  0.005495820024649078  0.006250000097392857  0.9997491041042803  1.0000
  Cu  Cu24      1.0  0.0021624864219686613  0.006250000097392857  0.9999250939646139  1.0000
  Cu  Cu25      1.0  0.0004958196780177461  0.008750000233742857  1.308889629563156e-05  1.0000
  Cu  Cu26      1.0  0.0071624868259892865  0.008750000233742857  0.9996611088832352  1.0000
  Cu  Cu27      1.0  0.0038291532233088697  0.008750000233742857  0.9998370990344471  1.0000
  Au  Au7       1.0  0.008829153627329495  0.006250000097392857  0.9998370991149235  1.0000
  Au  Au8       1.0  0.005495820024649078  0.006250000097392857  1.3088975256975123e-05  1.0000
  Au  Au9       1.0  0.0021624864219686613  0.006250000097392857  0.9996611090936373  1.0000
  Cu  Cu28      1.0  0.0071624868259892865  0.008750000233742857  0.9993971237213803  1.0000
  Cu  Cu29      1.0  0.0038291532233088697  0.008750000233742857  0.9995731138725922  1.0000
  Cu  Cu30      1.0  0.0004958196780177461  0.008750000233742857  0.9992211337016091  1.0000
  Cu  Cu31      1.0  0.008829153627329495  0.006250000097392857  0.9995731139530685  1.0000
  Cu  Cu32      1.0  0.005495820024649078  0.006250000097392857  0.9992211337805705  1.0000
  Cu  Cu33      1.0  0.0021624864219686613  0.006250000097392857  0.9993971239317824  1.0000
  Cu  Cu34      1.0  0.0004958196780177461  0.008750000233742857  0.999485118863464  1.0000
  Cu  Cu35      1.0  0.0071624868259892865  0.008750000233742857  0.9991331388504038  1.0000
  Cu  Cu36      1.0  0.0038291532233088697  0.008750000233742857  0.9993091287107373  1.0000
  Au  Au10      1.0  0.008829153627329495  0.006250000097392857  0.9993091287912136  1.0000
  Au  Au11      1.0  0.005495820024649078  0.006250000097392857  0.9994851189424254  1.0000
  Au  Au12      1.0  0.0021624864219686613  0.006250000097392857  0.9991331387699274  1.0000
