data_image0
_chemical_formula_structural       HNi4Rh8Sn4Ni4Rh8Sn4Ni4Rh8Sn4Ni4Rh8Sn4
_chemical_formula_sum              "H1 Ni16 Rh32 Sn16"
_cell_length_a       8.806999206542969
_cell_length_b       8.806999206542969
_cell_length_c       107.36493682861328
_cell_angle_alpha    90.0
_cell_angle_beta     90.0
_cell_angle_gamma    90.0

_space_group_name_H-M_alt    "P 1"
_space_group_IT_number       1

loop_
  _space_group_symop_operation_xyz
  'x, y, z'

loop_
  _atom_site_type_symbol
  _atom_site_label
  _atom_site_symmetry_multiplicity
  _atom_site_fract_x
  _atom_site_fract_y
  _atom_site_fract_z
  _atom_site_occupancy
  H   H1        1.0  0.004999995245569805  0.002500009889553199  0.0001147530958703466  1.0000
  Ni  Ni1       1.0  0.0025000010067209844  4.400000183613726e-09  0.9994172709183496  1.0000
  Ni  Ni2       1.0  9.500000396438727e-10  0.002500004390657066  0.9991272556922395  1.0000
  Ni  Ni3       1.0  0.002500014119473301  0.009999995567043733  0.9999905495229823  1.0000
  Ni  Ni4       1.0  9.500000396438727e-10  0.002500004390657066  0.9997072855893007  1.0000
  Rh  Rh1       1.0  9.500000396438727e-10  4.400000183613726e-09  0.998982248356764  1.0000
  Rh  Rh2       1.0  0.0025000010067209844  0.002500004390657066  0.998982248356764  1.0000
  Rh  Rh3       1.0  0.0025000010067209844  0.002500004390657066  0.9992722633052945  1.0000
  Rh  Rh4       1.0  9.500000396438727e-10  4.400000183613726e-09  0.9992722633052945  1.0000
  Rh  Rh5       1.0  9.500000396438727e-10  4.400000183613726e-09  0.9995622785314048  1.0000
  Rh  Rh6       1.0  0.0025000010067209844  0.002500004390657066  0.9995622785314048  1.0000
  Rh  Rh7       1.0  0.002499998891760933  0.0025000037561690508  0.9998538576413052  1.0000
  Rh  Rh8       1.0  0.009999998950979814  8.899999968003877e-09  0.999853852089712  1.0000
  Sn  Sn1       1.0  9.500000396438727e-10  0.002500004390657066  0.9994172709183496  1.0000
  Sn  Sn2       1.0  0.0025000010067209844  4.400000183613726e-09  0.9991272556922395  1.0000
  Sn  Sn3       1.0  0.009999995567043733  0.002500009889553199  0.0  1.0000
  Sn  Sn4       1.0  0.0025000010067209844  4.400000183613726e-09  0.9997072855893007  1.0000
  Ni  Ni5       1.0  0.0025000010067209844  0.00500000455139403  0.9994172709183496  1.0000
  Ni  Ni6       1.0  9.500000396438727e-10  0.0075000045006349885  0.9991272556922395  1.0000
  Ni  Ni7       1.0  0.002500014119473301  0.0049999956685618146  0.9999905495229823  1.0000
  Ni  Ni8       1.0  9.500000396438727e-10  0.0075000045006349885  0.9997072855893007  1.0000
  Rh  Rh9       1.0  9.500000396438727e-10  0.00500000455139403  0.998982248356764  1.0000
  Rh  Rh10      1.0  0.0025000010067209844  0.0075000045006349885  0.998982248356764  1.0000
  Rh  Rh11      1.0  0.0025000010067209844  0.0075000045006349885  0.9992722633052945  1.0000
  Rh  Rh12      1.0  9.500000396438727e-10  0.00500000455139403  0.9992722633052945  1.0000
  Rh  Rh13      1.0  9.500000396438727e-10  0.00500000455139403  0.9995622785314048  1.0000
  Rh  Rh14      1.0  0.0025000010067209844  0.0075000045006349885  0.9995622785314048  1.0000
  Rh  Rh15      1.0  0.002499998891760933  0.007500003654650968  0.9998538576413052  1.0000
  Rh  Rh16      1.0  0.009999998950979814  0.005000008781314132  0.999853852089712  1.0000
  Sn  Sn5       1.0  9.500000396438727e-10  0.0075000045006349885  0.9994172709183496  1.0000
  Sn  Sn6       1.0  0.0025000010067209844  0.00500000455139403  0.9991272556922395  1.0000
  Sn  Sn7       1.0  0.009999995567043733  0.007500010422523132  0.0  1.0000
  Sn  Sn8       1.0  0.0025000010067209844  0.00500000455139403  0.9997072855893007  1.0000
  Ni  Ni9       1.0  0.007500001116698907  4.400000183613726e-09  0.9994172709183496  1.0000
  Ni  Ni10      1.0  0.005000001167457948  0.002500004390657066  0.9991272556922395  1.0000
  Ni  Ni11      1.0  0.007500014652443234  0.009999995567043733  0.9999905495229823  1.0000
  Ni  Ni12      1.0  0.005000001167457948  0.002500004390657066  0.9997072855893007  1.0000
  Rh  Rh17      1.0  0.005000001167457948  4.400000183613726e-09  0.998982248356764  1.0000
  Rh  Rh18      1.0  0.007500001116698907  0.002500004390657066  0.998982248356764  1.0000
  Rh  Rh19      1.0  0.007500001116698907  0.002500004390657066  0.9992722633052945  1.0000
  Rh  Rh20      1.0  0.005000001167457948  4.400000183613726e-09  0.9992722633052945  1.0000
  Rh  Rh21      1.0  0.005000001167457948  4.400000183613726e-09  0.9995622785314048  1.0000
  Rh  Rh22      1.0  0.007500001116698907  0.002500004390657066  0.9995622785314048  1.0000
  Rh  Rh23      1.0  0.007499999424730865  0.0025000037561690508  0.9998538576413052  1.0000
  Rh  Rh24      1.0  0.004999999052497896  8.899999968003877e-09  0.999853852089712  1.0000
  Sn  Sn9       1.0  0.005000001167457948  0.002500004390657066  0.9994172709183496  1.0000
  Sn  Sn10      1.0  0.007500001116698907  4.400000183613726e-09  0.9991272556922395  1.0000
  Sn  Sn11      1.0  0.004999995245569805  0.002500009889553199  0.0  1.0000
  Sn  Sn12      1.0  0.007500001116698907  4.400000183613726e-09  0.9997072855893007  1.0000
  Ni  Ni13      1.0  0.007500001116698907  0.00500000455139403  0.9994172709183496  1.0000
  Ni  Ni14      1.0  0.005000001167457948  0.0075000045006349885  0.9991272556922395  1.0000
  Ni  Ni15      1.0  0.007500014652443234  0.0049999956685618146  0.9999905495229823  1.0000
  Ni  Ni16      1.0  0.005000001167457948  0.0075000045006349885  0.9997072855893007  1.0000
  Rh  Rh25      1.0  0.005000001167457948  0.00500000455139403  0.998982248356764  1.0000
  Rh  Rh26      1.0  0.007500001116698907  0.0075000045006349885  0.998982248356764  1.0000
  Rh  Rh27      1.0  0.007500001116698907  0.0075000045006349885  0.9992722633052945  1.0000
  Rh  Rh28      1.0  0.005000001167457948  0.00500000455139403  0.9992722633052945  1.0000
  Rh  Rh29      1.0  0.005000001167457948  0.00500000455139403  0.9995622785314048  1.0000
  Rh  Rh30      1.0  0.007500001116698907  0.0075000045006349885  0.9995622785314048  1.0000
  Rh  Rh31      1.0  0.007499999424730865  0.007500003654650968  0.9998538576413052  1.0000
  Rh  Rh32      1.0  0.004999999052497896  0.005000008781314132  0.999853852089712  1.0000
  Sn  Sn13      1.0  0.005000001167457948  0.0075000045006349885  0.9994172709183496  1.0000
  Sn  Sn14      1.0  0.007500001116698907  0.00500000455139403  0.9991272556922395  1.0000
  Sn  Sn15      1.0  0.004999995245569805  0.007500010422523132  0.0  1.0000
  Sn  Sn16      1.0  0.007500001116698907  0.00500000455139403  0.9997072855893007  1.0000
