data_image0
_chemical_formula_structural       Pt12Si4H
_chemical_formula_sum              "Pt12 Si4 H1"
_cell_length_a       5.623481306227635
_cell_length_b       5.623480900041227
_cell_length_c       101.17189025878906
_cell_angle_alpha    88.44840052742401
_cell_angle_beta     88.4484006395241
_cell_angle_gamma    89.7766279940805

_space_group_name_H-M_alt    "P 1"
_space_group_IT_number       1

loop_
  _space_group_symop_operation_xyz
  'x, y, z'

loop_
  _atom_site_type_symbol
  _atom_site_label
  _atom_site_symmetry_multiplicity
  _atom_site_fract_x
  _atom_site_fract_y
  _atom_site_fract_z
  _atom_site_occupancy
  Pt  Pt1       1.0  0.004731320187428903  0.00021364876529281413  0.999414283460367  1.0000
  Pt  Pt2       1.0  0.009786350709436701  0.005181625899330311  0.9997983685466079  1.0000
  Pt  Pt3       1.0  0.00021364914143474665  0.0047313202450379  0.9994142834597142  1.0000
  Pt  Pt4       1.0  0.005181628893446036  0.009786351740843576  0.9997983685405493  1.0000
  Pt  Pt5       1.0  0.0031277807659210732  0.006817188335928568  0.9996068510104498  1.0000
  Pt  Pt6       1.0  0.008254872185116252  0.0017802251637683072  0.9999848967344751  1.0000
  Pt  Pt7       1.0  0.006817188148734998  0.003127780420091389  0.999606851011252  1.0000
  Pt  Pt8       1.0  0.00178022611345192  0.008254871490038392  0.9999848967340919  1.0000
  Pt  Pt9       1.0  0.0032842357037704407  0.0032842353796504187  0.9999669025410999  1.0000
  Pt  Pt10      1.0  0.008157589072345673  0.008157589259092718  0.9995797807645844  1.0000
  Pt  Pt11      1.0  0.001787380337757719  0.0017873799939515191  0.9996339212556236  1.0000
  Pt  Pt12      1.0  0.0068106821744125115  0.006810683944852921  3.195135595013548e-06  1.0000
  Si  Si1       1.0  0.00034043384302856743  0.0003404334669885963  0.9994131980996621  1.0000
  Si  Si2       1.0  0.0053698124310402095  0.005369811551614054  0.9997992038926239  1.0000
  Si  Si3       1.0  0.004604535486556696  0.004604535315539323  0.9994153685261895  1.0000
  Si  Si4       1.0  0.009583642146286712  0.009583646021248272  0.999800941500621  1.0000
  H   H1        1.0  0.003480927337775061  0.009020611615440984  3.989561121962588e-05  1.0000
