data_image0
_chemical_formula_structural       HSi12Ni12Si12Ni12
_chemical_formula_sum              "H1 Si24 Ni24"
_cell_length_a       5.181920528411865
_cell_length_b       8.85119847730034
_cell_length_c       109.46665954589844
_cell_angle_alpha    81.91278937969703
_cell_angle_beta     90.0
_cell_angle_gamma    90.0

_space_group_name_H-M_alt    "P 1"
_space_group_IT_number       1

loop_
  _space_group_symop_operation_xyz
  'x, y, z'

loop_
  _atom_site_type_symbol
  _atom_site_label
  _atom_site_symmetry_multiplicity
  _atom_site_fract_x
  _atom_site_fract_y
  _atom_site_fract_z
  _atom_site_occupancy
  H   H1        1.0  0.004928709416574072  0.004739976620044241  0.9999269634853875  1.0000
  Si  Si1       1.0  0.008246071634793451  0.005922445636991294  0.99931516838143  1.0000
  Si  Si2       1.0  0.008246071634793451  0.009255778794613562  0.9991148706279345  1.0000
  Si  Si3       1.0  0.008246071634793451  0.002589112479369027  0.998914573140693  1.0000
  Si  Si4       1.0  0.0018133211292619355  0.007015187231182474  0.9991460458648835  1.0000
  Si  Si5       1.0  0.0018133211292619355  0.00034852088936872597  0.9989457483779443  1.0000
  Si  Si6       1.0  0.0018133211292619355  0.003681854073560207  0.999346343618379  1.0000
  Si  Si7       1.0  0.003246071634793451  0.007015187231182474  0.9988455995038924  1.0000
  Si  Si8       1.0  0.003246071634793451  0.00034852088936872597  0.9992461947389354  1.0000
  Si  Si9       1.0  0.003246071634793451  0.003681854073560207  0.9990458969851377  1.0000
  Si  Si10      1.0  0.006813321129261935  0.005922445636991294  0.9990147217481886  1.0000
  Si  Si11      1.0  0.006813321129261935  0.009255778794613562  0.9994153172611758  1.0000
  Si  Si12      1.0  0.006813321129261935  0.002589112479369027  0.9992150195016841  1.0000
  Ni  Ni1       1.0  0.005121217571792376  0.00792786735157616  0.9992557307869901  1.0000
  Ni  Ni2       1.0  0.005121217571792376  0.0012612008237779162  0.9990554330299163  1.0000
  Ni  Ni3       1.0  0.005121217571792376  0.004594534193953893  0.9988551352740029  1.0000
  Ni  Ni4       1.0  0.00493817519226301  0.005009765941705027  0.9992054839989881  1.0000
  Ni  Ni5       1.0  0.00493817519226301  0.008343098674219876  0.9990051862503283  1.0000
  Ni  Ni6       1.0  0.00493817519226301  0.0016764324652521958  0.9994057817561104  1.0000
  Ni  Ni7       1.0  0.00012121759425804767  0.008343098674219876  0.9993056328835697  1.0000
  Ni  Ni8       1.0  0.00012121759425804767  0.0016764324652521958  0.999105335122869  1.0000
  Ni  Ni9       1.0  0.00012121759425804767  0.005009765941705027  0.9989050373657468  1.0000
  Ni  Ni10      1.0  0.00993817519226301  0.004594534193953893  0.9991555819072444  1.0000
  Ni  Ni11      1.0  0.00993817519226301  0.00792786735157616  0.9989552841537488  1.0000
  Ni  Ni12      1.0  0.00993817519226301  0.0012612008237779162  0.9993558796631576  1.0000
  Si  Si13      1.0  0.008428559022386017  0.005937672984710607  0.9999158873470719  1.0000
  Si  Si14      1.0  0.008246071634793451  0.009255778794613562  0.9997157638944172  1.0000
  Si  Si15      1.0  0.008246071634793451  0.002589112479369027  0.9995154661349256  1.0000
  Si  Si16      1.0  0.0019162892074485094  0.0070694449662874175  0.9997565002937309  1.0000
  Si  Si17      1.0  0.0018133211292619355  0.00034852088936872597  0.9995466413721767  1.0000
  Si  Si18      1.0  0.0014920926768957718  0.0038442064225310364  0.999949926351996  1.0000
  Si  Si19      1.0  0.003246071634793451  0.007015187231182474  0.9994464924981249  1.0000
  Si  Si20      1.0  0.0031465882517696477  0.00034221739657190934  0.9998540830311143  1.0000
  Si  Si21      1.0  0.003246071634793451  0.003681854073560207  0.9996467902516204  1.0000
  Si  Si22      1.0  0.006813321129261935  0.005922445636991294  0.9996156150146713  1.0000
  Si  Si23      1.0  0.006787187622932151  0.009657782474833097  0.9999991011375091  1.0000
  Si  Si24      1.0  0.006968286811781242  0.0026987540591296806  0.9998132950821089  1.0000
  Ni  Ni13      1.0  0.005230661694168961  0.007965572679139315  0.9998671701044494  1.0000
  Ni  Ni14      1.0  0.005121217571792376  0.0012612008237779162  0.999656326296399  1.0000
  Ni  Ni15      1.0  0.005121217571792376  0.004594534193953893  0.9994560285404858  1.0000
  Ni  Ni16      1.0  0.004928709416574072  0.005018033005666431  0.9998128237665447  1.0000
  Ni  Ni17      1.0  0.00493817519226301  0.008343098674219876  0.999606079516811  1.0000
  Ni  Ni18      1.0  0.004776460822170231  0.002000105533766779  0.9999846255917997  1.0000
  Ni  Ni19      1.0  3.7266400492497833e-05  0.008445662640575202  0.999903930166152  1.0000
  Ni  Ni20      1.0  0.00012121759425804767  0.0016764324652521958  0.9997062283893517  1.0000
  Ni  Ni21      1.0  0.00012121759425804767  0.005009765941705027  0.9995059306322295  1.0000
  Ni  Ni22      1.0  0.009962733585466458  0.004690302818229564  0.9997459877231774  1.0000
  Ni  Ni23      1.0  0.00993817519226301  0.00792786735157616  0.9995561774202316  1.0000
  Ni  Ni24      1.0  0.00989904179060528  0.0014065211377623913  0.9999509757109368  1.0000
