data_image0
_chemical_formula_structural       HSi12Rh24
_chemical_formula_sum              "H1 Si12 Rh24"
_cell_length_a       6.798401929763731
_cell_length_b       8.4516136836917
_cell_length_c       110.36309814453125
_cell_angle_alpha    62.19534923030299
_cell_angle_beta     77.73804187506099
_cell_angle_gamma    74.01358884816977

_space_group_name_H-M_alt    "P 1"
_space_group_IT_number       1

loop_
  _space_group_symop_operation_xyz
  'x, y, z'

loop_
  _atom_site_type_symbol
  _atom_site_label
  _atom_site_symmetry_multiplicity
  _atom_site_fract_x
  _atom_site_fract_y
  _atom_site_fract_z
  _atom_site_occupancy
  H   H1        1.0  0.0019174296167565469  0.006461129999336729  0.9997441139623731  1.0000
  Si  Si1       1.0  0.009125736076500206  0.007141787085620411  0.9995555249668795  1.0000
  Si  Si2       1.0  0.0023328376146159032  0.0006122099069842846  0.9992438984407516  1.0000
  Si  Si3       1.0  0.005666171014179375  0.0039455433752073376  0.9989391233495909  1.0000
  Si  Si4       1.0  0.0043060702221326954  0.006075166228113211  0.9994633237980436  1.0000
  Si  Si5       1.0  0.007667162700934748  0.009387789988667065  0.9991625146774259  1.0000
  Si  Si6       1.0  0.0010004956739730587  0.0027211234339843157  0.9988577398194962  1.0000
  Si  Si7       1.0  0.004735985749990966  0.0008608628794145444  0.9994877317404187  1.0000
  Si  Si8       1.0  0.00803767600803886  0.004202533232184572  0.999179453223488  1.0000
  Si  Si9       1.0  0.0013710093324885376  0.007535866636780399  0.9988746780167659  1.0000
  Si  Si10      1.0  0.00863838249535779  0.002456700898969429  0.9995387329346622  1.0000
  Si  Si11      1.0  0.001962323954095006  0.005797466981602908  0.9992269598879487  1.0000
  Si  Si12      1.0  0.005295657146316988  0.009130800131689829  0.9989221848108649  1.0000
  Rh  Rh1       1.0  0.0020395039469347886  0.008831926253369616  0.9994959133982219  1.0000
  Rh  Rh2       1.0  0.00535119759861571  0.0020554217999280175  0.9991946686098528  1.0000
  Rh  Rh3       1.0  0.008684530452028435  0.005388755204523844  0.9988898935281103  1.0000
  Rh  Rh4       1.0  0.0012563286141273617  0.004559771346920085  0.9995154810976484  1.0000
  Rh  Rh5       1.0  0.0046488026438972945  0.007944578413859461  0.9992117444979157  1.0000
  Rh  Rh6       1.0  0.007982135934491675  0.001277911477413357  0.9989069697682857  1.0000
  Rh  Rh7       1.0  0.005234759754956086  0.007836075668811936  0.9996667207000702  1.0000
  Rh  Rh8       1.0  0.008325891672792319  0.0011060335973905972  0.9993798472595755  1.0000
  Rh  Rh9       1.0  0.001659225055672113  0.004439366747477519  0.9990750720611803  1.0000
  Rh  Rh10      1.0  0.008340775245271008  0.005560633211801056  0.9993313410549154  1.0000
  Rh  Rh11      1.0  0.0016741083477716666  0.008893966361887978  0.9990265658601883  1.0000
  Rh  Rh12      1.0  0.005071736661230225  0.002345027991011446  0.999625266976826  1.0000
  Rh  Rh13      1.0  0.006207771457671929  0.008497725012095891  0.9994048605638562  1.0000
  Rh  Rh14      1.0  0.009541105279809527  0.001831058202904239  0.9991000858227265  1.0000
  Rh  Rh15      1.0  0.002823210326903762  0.0053475843171303765  0.999684235981951  1.0000
  Rh  Rh16      1.0  0.007002944016676857  0.004886357172762957  0.9996113367234346  1.0000
  Rh  Rh17      1.0  0.00045889530151273374  0.008168941756374337  0.9993063272897009  1.0000
  Rh  Rh18      1.0  0.0037922285336769957  0.0015022750744371355  0.999001552551744  1.0000
  Rh  Rh19      1.0  0.00842355697203445  0.009204644363184028  0.9996576523109824  1.0000
  Rh  Rh20      1.0  0.0016765853365471712  0.0025600966683456926  0.9993619957569945  1.0000
  Rh  Rh21      1.0  0.005009918610528604  0.005893430072941519  0.9990572206697497  1.0000
  Rh  Rh22      1.0  0.004990081129656242  0.004106569886337057  0.9993491924536823  1.0000
  Rh  Rh23      1.0  0.008323414485397126  0.007439903545441787  0.9990444173562764  1.0000
  Rh  Rh24      1.0  0.0017258122105919338  0.0007977280008448556  0.9996450320063721  1.0000
