data_image0
_chemical_formula_structural       HTi3Rh3Ti3Rh3Ti3Rh3Ti3Rh3Ti3Rh3Ti3Rh3Ti3Rh3Ti3Rh3
_chemical_formula_sum              "H1 Ti24 Rh24"
_cell_length_a       8.82936448354569
_cell_length_b       8.829364776611328
_cell_length_c       102.44115447998047
_cell_angle_alpha    90.0
_cell_angle_beta     90.0
_cell_angle_gamma    59.99999890201233

_space_group_name_H-M_alt    "P 1"
_space_group_IT_number       1

loop_
  _space_group_symop_operation_xyz
  'x, y, z'

loop_
  _atom_site_type_symbol
  _atom_site_label
  _atom_site_symmetry_multiplicity
  _atom_site_fract_x
  _atom_site_fract_y
  _atom_site_fract_z
  _atom_site_occupancy
  H   H1        1.0  0.0008333340527533561  0.0008333328892392152  4.030424846879465e-05  1.0000
  Ti  Ti1       1.0  0.0008333320430868142  0.0008333326283108852  0.9996686498536884  1.0000
  Ti  Ti2       1.0  0.0025000003312904847  0.002499999581202438  0.9998549198334242  1.0000
  Ti  Ti3       1.0  0.004166665757241807  0.004166664167935361  0.0  1.0000
  Rh  Rh1       1.0  0.0008333340527533561  0.0008333328892392152  0.9999200350211627  1.0000
  Rh  Rh2       1.0  0.0024999988697148178  0.00249999904622867  0.9995806827912768  1.0000
  Rh  Rh3       1.0  0.004166668193201252  0.004166667169160975  0.9997546881073275  1.0000
  Ti  Ti4       1.0  0.0008333320430868142  0.0008333326283108852  0.9991408480610616  1.0000
  Ti  Ti5       1.0  0.0024999988697148178  0.00249999904622867  0.9993167818949634  1.0000
  Ti  Ti6       1.0  0.004166665270049918  0.004166665677292906  0.9994927157288652  1.0000
  Rh  Rh4       1.0  0.0008333320430868142  0.0008333326283108852  0.999404748957375  1.0000
  Rh  Rh5       1.0  0.0024999988697148178  0.00249999904622867  0.9990528812895714  1.0000
  Rh  Rh6       1.0  0.004166665270049918  0.004166665677292906  0.9992288151234732  1.0000
  Ti  Ti7       1.0  0.0008333320430868142  0.005833332290774458  0.9996686498536884  1.0000
  Ti  Ti8       1.0  0.0025000003312904847  0.0074999996655865445  0.9998549198334242  1.0000
  Ti  Ti9       1.0  0.004166665757241807  0.009166664252319467  0.0  1.0000
  Rh  Rh7       1.0  0.0008333340527533561  0.005833332551702789  0.9999200350211627  1.0000
  Rh  Rh8       1.0  0.0024999988697148178  0.007499998708692244  0.9995806827912768  1.0000
  Rh  Rh9       1.0  0.004166668193201252  0.009166666409704014  0.9997546881073275  1.0000
  Ti  Ti10      1.0  0.0008333320430868142  0.005833332290774458  0.9991408480610616  1.0000
  Ti  Ti11      1.0  0.0024999988697148178  0.007499998708692244  0.9993167818949634  1.0000
  Ti  Ti12      1.0  0.004166665270049918  0.009166665339756479  0.9994927157288652  1.0000
  Rh  Rh10      1.0  0.0008333320430868142  0.005833332290774458  0.999404748957375  1.0000
  Rh  Rh11      1.0  0.0024999988697148178  0.007499998708692244  0.9990528812895714  1.0000
  Rh  Rh12      1.0  0.004166665270049918  0.009166665339756479  0.9992288151234732  1.0000
  Ti  Ti13      1.0  0.005833332157576908  0.0008333324022976249  0.9996686498536884  1.0000
  Ti  Ti14      1.0  0.007500000506679565  0.0024999993247396836  0.9998549198334242  1.0000
  Ti  Ti15      1.0  0.009166665445438999  0.0041666645769890855  0.0  1.0000
  Rh  Rh13      1.0  0.005833334106344464  0.0008333326936754477  0.9999200350211627  1.0000
  Rh  Rh14      1.0  0.007499998557912009  0.0024999990333618607  0.9995806827912768  1.0000
  Rh  Rh15      1.0  0.009166668368590333  0.004166666490777687  0.9997546881073275  1.0000
  Ti  Ti16      1.0  0.005833332157576908  0.0008333324022976249  0.9991408480610616  1.0000
  Ti  Ti17      1.0  0.007499998557912009  0.0024999990333618607  0.9993167818949634  1.0000
  Ti  Ti18      1.0  0.009166665445438999  0.004166665420830153  0.9994927157288652  1.0000
  Rh  Rh16      1.0  0.005833332157576908  0.0008333324022976249  0.999404748957375  1.0000
  Rh  Rh17      1.0  0.007499998557912009  0.0024999990333618607  0.9990528812895714  1.0000
  Rh  Rh18      1.0  0.009166665445438999  0.004166665420830153  0.9992288151234732  1.0000
  Ti  Ti19      1.0  0.005833332157576908  0.005833332064761197  0.9996686498536884  1.0000
  Ti  Ti20      1.0  0.007500000506679565  0.007499999409123791  0.9998549198334242  1.0000
  Ti  Ti21      1.0  0.009166665445438999  0.009166664239452659  0.0  1.0000
  Rh  Rh19      1.0  0.005833334106344464  0.005833332778059554  0.9999200350211627  1.0000
  Rh  Rh20      1.0  0.007499998557912009  0.0074999986958254345  0.9995806827912768  1.0000
  Rh  Rh21      1.0  0.009166668368590333  0.009166666997082329  0.9997546881073275  1.0000
  Ti  Ti22      1.0  0.005833332157576908  0.005833332064761197  0.9991408480610616  1.0000
  Ti  Ti23      1.0  0.007499998557912009  0.0074999986958254345  0.9993167818949634  1.0000
  Ti  Ti24      1.0  0.009166665445438999  0.009166665083293727  0.9994927157288652  1.0000
  Rh  Rh22      1.0  0.005833332157576908  0.005833332064761197  0.999404748957375  1.0000
  Rh  Rh23      1.0  0.007499998557912009  0.0074999986958254345  0.9990528812895714  1.0000
  Rh  Rh24      1.0  0.009166665445438999  0.009166665083293727  0.9992288151234732  1.0000
