data_image0
_chemical_formula_structural       HGa3Ni3Rh6Ga3Ni3Rh6Ga3Ni3Rh6Ga3Ni3Rh6
_chemical_formula_sum              "H1 Ga12 Ni12 Rh24"
_cell_length_a       8.490474700927734
_cell_length_b       8.490474704598302
_cell_length_c       101.19599914550781
_cell_angle_alpha    90.0
_cell_angle_beta     90.0
_cell_angle_gamma    119.99999998569909

_space_group_name_H-M_alt    "P 1"
_space_group_IT_number       1

loop_
  _space_group_symop_operation_xyz
  'x, y, z'

loop_
  _atom_site_type_symbol
  _atom_site_label
  _atom_site_symmetry_multiplicity
  _atom_site_fract_x
  _atom_site_fract_y
  _atom_site_fract_z
  _atom_site_occupancy
  H   H1        1.0  0.004166678971267985  0.004166654946447502  0.00012174906713393782  1.0000
  Ga  Ga1       1.0  2.4855585766940008e-09  0.000833329621367667  0.9994262072203615  1.0000
  Ga  Ga2       1.0  0.0033333357822434907  0.0024999962103498838  0.9990836816541883  1.0000
  Ga  Ga3       1.0  0.0016666635232270195  0.004166670398897842  0.9997607868552021  1.0000
  Ni  Ni1       1.0  0.0016666691293859353  0.004166662799332101  0.9992549442900244  1.0000
  Ni  Ni2       1.0  0.009999997727516571  0.0008333366509659774  0.9999427437056514  1.0000
  Ni  Ni3       1.0  0.0033333357822434907  0.0024999962103498838  0.9995974701506986  1.0000
  Rh  Rh1       1.0  0.001666678914229038  0.004166654946447502  0.0  1.0000
  Rh  Rh2       1.0  2.4855585766940008e-09  0.000833329621367667  0.9996831016158672  1.0000
  Rh  Rh3       1.0  0.0033333357822434907  0.0024999962103498838  0.9993405757551929  1.0000
  Rh  Rh4       1.0  0.003333329617179734  0.002500004063234483  0.9998594181832698  1.0000
  Rh  Rh5       1.0  0.0016666691293859353  0.004166662799332101  0.9995118386855301  1.0000
  Rh  Rh6       1.0  2.4855585766940008e-09  0.000833329621367667  0.9991693131193568  1.0000
  Ga  Ga4       1.0  2.476528379615627e-09  0.005833329388314318  0.9994262072203615  1.0000
  Ga  Ga5       1.0  0.003333335762759869  0.007499996230615392  0.9990836816541883  1.0000
  Ga  Ga6       1.0  0.00166666343192911  0.009166670165844493  0.9997607868552021  1.0000
  Ni  Ni4       1.0  0.0016666693188294548  0.009166663072916468  0.9992549442900244  1.0000
  Ni  Ni5       1.0  0.009999997256544957  0.005833336481242343  0.9999427437056514  1.0000
  Ni  Ni6       1.0  0.003333335762759869  0.007499996230615392  0.9995974701506986  1.0000
  Rh  Rh7       1.0  0.0016666788673228457  0.009166654966713011  0.0  1.0000
  Rh  Rh8       1.0  2.476528379615627e-09  0.005833329388314318  0.9996831016158672  1.0000
  Rh  Rh9       1.0  0.003333335762759869  0.007499996230615392  0.9993405757551929  1.0000
  Rh  Rh10      1.0  0.003333329608149537  0.007500003830181134  0.9998594181832698  1.0000
  Rh  Rh11      1.0  0.0016666693188294548  0.009166663072916468  0.9995118386855301  1.0000
  Rh  Rh12      1.0  2.476528379615627e-09  0.005833329388314318  0.9991693131193568  1.0000
  Ga  Ga7       1.0  0.0050000022157204805  0.000833329621367667  0.9994262072203615  1.0000
  Ga  Ga8       1.0  0.008333335457560253  0.0024999962103498838  0.9990836816541883  1.0000
  Ga  Ga9       1.0  0.006666663390501777  0.004166670398897842  0.9997607868552021  1.0000
  Ni  Ni7       1.0  0.00666666924346383  0.004166662799332101  0.9992549442900244  1.0000
  Ni  Ni8       1.0  0.00499999739405811  0.0008333366509659774  0.9999427437056514  1.0000
  Ni  Ni9       1.0  0.008333335457560253  0.0024999962103498838  0.9995974701506986  1.0000
  Rh  Rh13      1.0  0.006666678918616649  0.004166654946447502  0.0  1.0000
  Rh  Rh14      1.0  0.0050000022157204805  0.000833329621367667  0.9996831016158672  1.0000
  Rh  Rh15      1.0  0.008333335457560253  0.0024999962103498838  0.9993405757551929  1.0000
  Rh  Rh16      1.0  0.00833332973125763  0.002500004063234483  0.9998594181832698  1.0000
  Rh  Rh17      1.0  0.00666666924346383  0.004166662799332101  0.9995118386855301  1.0000
  Rh  Rh18      1.0  0.0050000022157204805  0.000833329621367667  0.9991693131193568  1.0000
  Ga  Ga10      1.0  0.005000002371225708  0.005833329388314318  0.9994262072203615  1.0000
  Ga  Ga11      1.0  0.008333335520344343  0.007499996230615392  0.9990836816541883  1.0000
  Ga  Ga12      1.0  0.006666663326626438  0.009166670165844493  0.9997607868552021  1.0000
  Ni  Ni10      1.0  0.006666669213526783  0.009166663072916468  0.9992549442900244  1.0000
  Ni  Ni11      1.0  0.00499999736184763  0.005833336481242343  0.9999427437056514  1.0000
  Ni  Ni12      1.0  0.008333335520344343  0.007499996230615392  0.9995974701506986  1.0000
  Rh  Rh19      1.0  0.00666667898140074  0.009166654966713011  0.0  1.0000
  Rh  Rh20      1.0  0.005000002371225708  0.005833329388314318  0.9996831016158672  1.0000
  Rh  Rh21      1.0  0.008333335520344343  0.007499996230615392  0.9993405757551929  1.0000
  Rh  Rh22      1.0  0.00833332966738229  0.007500003830181134  0.9998594181832698  1.0000
  Rh  Rh23      1.0  0.006666669213526783  0.009166663072916468  0.9995118386855301  1.0000
  Rh  Rh24      1.0  0.005000002371225708  0.005833329388314318  0.9991693131193568  1.0000
