data_image0
_chemical_formula_structural       Fe4Rh8Sn4CO
_chemical_formula_sum              "Fe4 Rh8 Sn4 C1 O1"
_cell_length_a       4.571700096130371
_cell_length_b       4.571699856503694
_cell_length_c       104.94068145751953
_cell_angle_alpha    90.0
_cell_angle_beta     90.0
_cell_angle_gamma    100.87765786333598

_space_group_name_H-M_alt    "P 1"
_space_group_IT_number       1

loop_
  _space_group_symop_operation_xyz
  'x, y, z'

loop_
  _atom_site_type_symbol
  _atom_site_label
  _atom_site_symmetry_multiplicity
  _atom_site_fract_x
  _atom_site_fract_y
  _atom_site_fract_z
  _atom_site_occupancy
  Fe  Fe1       1.0  0.005000003531897793  0.005000001443796066  0.9991601152912423  1.0000
  Fe  Fe2       1.0  3.799999872126005e-09  1.1500000150368481e-09  0.99943757924515  1.0000
  Fe  Fe3       1.0  0.00500000619690389  0.00499999397588538  0.9997206324471811  1.0000
  Fe  Fe4       1.0  0.009999992428257207  0.009999998738752862  0.9999529254728445  1.0000
  Rh  Rh1       1.0  0.005000003476454803  1.1500000150368481e-09  0.9990213834562844  1.0000
  Rh  Rh2       1.0  3.8374698633051695e-09  0.005000001443796066  0.9992988471262001  1.0000
  Rh  Rh3       1.0  3.8374698633051695e-09  0.005000001443796066  0.9990213834562844  1.0000
  Rh  Rh4       1.0  0.005000003476454803  1.1500000150368481e-09  0.9992988471262001  1.0000
  Rh  Rh5       1.0  0.005000003476454803  1.1500000150368481e-09  0.9995763110801078  1.0000
  Rh  Rh6       1.0  4.421784724695314e-08  0.005000016794501366  0.999854278551973  1.0000
  Rh  Rh7       1.0  3.8374698633051695e-09  0.005000001443796066  0.9995763110801078  1.0000
  Rh  Rh8       1.0  0.004999999735053048  1.1550000624098952e-08  0.999854278551973  1.0000
  Sn  Sn1       1.0  0.005000003531897793  0.005000001443796066  0.99943757924515  1.0000
  Sn  Sn2       1.0  3.799999872126005e-09  1.1500000150368481e-09  0.9991601152912423  1.0000
  Sn  Sn3       1.0  0.005000051998530415  0.005000014305197804  0.0  1.0000
  Sn  Sn4       1.0  0.009999995573192543  2.4500000664406022e-09  0.9997049526764686  1.0000
  C   C1        1.0  0.0024999963053023238  5.250000283681342e-09  9.41859732812981e-05  1.0000
  O   O1        1.0  0.0024999963053023238  5.250000283681342e-09  0.00020853595221590157  1.0000
