data_image0
_chemical_formula_structural       HCu18Ru6Cu18Ru6Cu18Ru6Cu18Ru6
_chemical_formula_sum              "H1 Cu72 Ru24"
_cell_length_a       8.492112159729004
_cell_length_b       14.025176064440734
_cell_length_c       101.80611419677734
_cell_angle_alpha    79.10660543821265
_cell_angle_beta     90.0
_cell_angle_gamma    90.0

_space_group_name_H-M_alt    "P 1"
_space_group_IT_number       1

loop_
  _space_group_symop_operation_xyz
  'x, y, z'

loop_
  _atom_site_type_symbol
  _atom_site_label
  _atom_site_symmetry_multiplicity
  _atom_site_fract_x
  _atom_site_fract_y
  _atom_site_fract_z
  _atom_site_occupancy
  H   H1        1.0  0.0025  0.0013846751276359868  0.9999758042154013  1.0000
  Cu  Cu1       1.0  0.00375  0.0038813325920647908  0.9996350601409157  1.0000
  Cu  Cu2       1.0  0.00375  0.0072146661417889875  0.9998086261572312  1.0000
  Cu  Cu3       1.0  0.00375  0.0005479992113959565  0.9994614947056712  1.0000
  Cu  Cu4       1.0  0.00375  0.0038813325920647908  0.9993782527344252  1.0000
  Cu  Cu5       1.0  0.00375  0.0072146661417889875  0.9995518187507405  1.0000
  Cu  Cu6       1.0  0.00375  0.0005479992113959565  0.9997253845687858  1.0000
  Cu  Cu7       1.0  0.00375  0.005570668473790045  0.9997230234295732  1.0000
  Cu  Cu8       1.0  0.00375  0.008904002023514242  0.9993758921762834  1.0000
  Cu  Cu9       1.0  0.00375  0.002237335059310139  0.9995494579952089  1.0000
  Cu  Cu10      1.0  0.00125  0.0027853342368950227  0.9994067869109601  1.0000
  Cu  Cu11      1.0  0.00125  0.00611866751613064  0.9995803529343176  1.0000
  Cu  Cu12      1.0  0.00125  0.009452001606831996  0.9997539183510765  1.0000
  Cu  Cu13      1.0  0.00125  0.0027853342368950227  0.9996635943174507  1.0000
  Cu  Cu14      1.0  0.00125  0.00611866751613064  0.9998371603408083  1.0000
  Cu  Cu15      1.0  0.00125  0.009452001606831996  0.999490028487962  1.0000
  Cu  Cu16      1.0  0.00125  0.001095998422791913  0.9998395208901473  1.0000
  Cu  Cu17      1.0  0.00125  0.004429331904893964  0.9994923896386181  1.0000
  Cu  Cu18      1.0  0.00125  0.0077626651841295816  0.9996659550765034  1.0000
  Ru  Ru1       1.0  0.00125  0.004444444642802736  0.9997523445224924  1.0000
  Ru  Ru2       1.0  0.00125  0.007777777922038352  0.9994052132762448  1.0000
  Ru  Ru3       1.0  0.00125  0.001111111160700684  0.9995787790898887  1.0000
  Ru  Ru4       1.0  0.00375  0.002222222321401368  0.9998101997954676  1.0000
  Ru  Ru5       1.0  0.00375  0.0055555557358812745  0.9994630685456989  1.0000
  Ru  Ru6       1.0  0.00375  0.008888889285605472  0.9996366339765421  1.0000
  Cu  Cu19      1.0  0.00375  0.0038813325920647908  0.9991143628713106  1.0000
  Cu  Cu20      1.0  0.00375  0.0072146661417889875  0.999287928887626  1.0000
  Cu  Cu21      1.0  0.00375  0.0005479992113959565  0.99894079714333  1.0000
  Cu  Cu22      1.0  0.00375  0.0038813325920647908  0.99885755546482  1.0000
  Cu  Cu23      1.0  0.00375  0.0072146661417889875  0.9990311211883993  1.0000
  Cu  Cu24      1.0  0.00375  0.0005479992113959565  0.9992046870064445  1.0000
  Cu  Cu25      1.0  0.00375  0.005570668473790045  0.9992023261599681  1.0000
  Cu  Cu26      1.0  0.00375  0.008904002023514242  0.9988551946139421  1.0000
  Cu  Cu27      1.0  0.00375  0.002237335059310139  0.9990287604328676  1.0000
  Cu  Cu28      1.0  0.00125  0.0027853342368950227  0.9988860896413548  1.0000
  Cu  Cu29      1.0  0.00125  0.00611866751613064  0.9990596553719764  1.0000
  Cu  Cu30      1.0  0.00125  0.009452001606831996  0.9992332210814714  1.0000
  Cu  Cu31      1.0  0.00125  0.0027853342368950227  0.9991428970478455  1.0000
  Cu  Cu32      1.0  0.00125  0.00611866751613064  0.999316463071203  1.0000
  Cu  Cu33      1.0  0.00125  0.009452001606831996  0.9989693312183568  1.0000
  Cu  Cu34      1.0  0.00125  0.001095998422791913  0.9993188236205421  1.0000
  Cu  Cu35      1.0  0.00125  0.004429331904893964  0.9989716920762768  1.0000
  Cu  Cu36      1.0  0.00125  0.0077626651841295816  0.9991452578068982  1.0000
  Ru  Ru7       1.0  0.00125  0.004444444642802736  0.9992316472528873  1.0000
  Ru  Ru8       1.0  0.00125  0.007777777922038352  0.9988845157139035  1.0000
  Ru  Ru9       1.0  0.00125  0.001111111160700684  0.9990580815275474  1.0000
  Ru  Ru10      1.0  0.00375  0.002222222321401368  0.9992895025258623  1.0000
  Ru  Ru11      1.0  0.00375  0.0055555557358812745  0.9989423709833576  1.0000
  Ru  Ru12      1.0  0.00375  0.008888889285605472  0.9991159367069369  1.0000
  Cu  Cu37      1.0  0.008749999999999999  0.0038813325920647908  0.9996350601409157  1.0000
  Cu  Cu38      1.0  0.008749999999999999  0.0072146661417889875  0.9998086261572312  1.0000
  Cu  Cu39      1.0  0.008749999999999999  0.0005479992113959565  0.9994614947056712  1.0000
  Cu  Cu40      1.0  0.008749999999999999  0.0038813325920647908  0.9993782527344252  1.0000
  Cu  Cu41      1.0  0.008749999999999999  0.0072146661417889875  0.9995518187507405  1.0000
  Cu  Cu42      1.0  0.008749999999999999  0.0005479992113959565  0.9997253845687858  1.0000
  Cu  Cu43      1.0  0.008749999999999999  0.005570668473790045  0.9997230234295732  1.0000
  Cu  Cu44      1.0  0.008749999999999999  0.008904002023514242  0.9993758921762834  1.0000
  Cu  Cu45      1.0  0.008749999999999999  0.002237335059310139  0.9995494579952089  1.0000
  Cu  Cu46      1.0  0.00625  0.0027853342368950227  0.9994067869109601  1.0000
  Cu  Cu47      1.0  0.00625  0.00611866751613064  0.9995803529343176  1.0000
  Cu  Cu48      1.0  0.00625  0.009452001606831996  0.9997539183510765  1.0000
  Cu  Cu49      1.0  0.00625  0.0027853342368950227  0.9996635943174507  1.0000
  Cu  Cu50      1.0  0.00625  0.00611866751613064  0.9998371603408083  1.0000
  Cu  Cu51      1.0  0.00625  0.009452001606831996  0.999490028487962  1.0000
  Cu  Cu52      1.0  0.00625  0.001095998422791913  0.9998395208901473  1.0000
  Cu  Cu53      1.0  0.00625  0.004429331904893964  0.9994923896386181  1.0000
  Cu  Cu54      1.0  0.00625  0.0077626651841295816  0.9996659550765034  1.0000
  Ru  Ru13      1.0  0.00625  0.004444444642802736  0.9997523445224924  1.0000
  Ru  Ru14      1.0  0.00625  0.007777777922038352  0.9994052132762448  1.0000
  Ru  Ru15      1.0  0.00625  0.001111111160700684  0.9995787790898887  1.0000
  Ru  Ru16      1.0  0.008749999999999999  0.002222222321401368  0.9998101997954676  1.0000
  Ru  Ru17      1.0  0.008749999999999999  0.0055555557358812745  0.9994630685456989  1.0000
  Ru  Ru18      1.0  0.008749999999999999  0.008888889285605472  0.9996366339765421  1.0000
  Cu  Cu55      1.0  0.008749999999999999  0.0038813325920647908  0.9991143628713106  1.0000
  Cu  Cu56      1.0  0.008749999999999999  0.0072146661417889875  0.999287928887626  1.0000
  Cu  Cu57      1.0  0.008749999999999999  0.0005479992113959565  0.99894079714333  1.0000
  Cu  Cu58      1.0  0.008749999999999999  0.0038813325920647908  0.99885755546482  1.0000
  Cu  Cu59      1.0  0.008749999999999999  0.0072146661417889875  0.9990311211883993  1.0000
  Cu  Cu60      1.0  0.008749999999999999  0.0005479992113959565  0.9992046870064445  1.0000
  Cu  Cu61      1.0  0.008749999999999999  0.005570668473790045  0.9992023261599681  1.0000
  Cu  Cu62      1.0  0.008749999999999999  0.008904002023514242  0.9988551946139421  1.0000
  Cu  Cu63      1.0  0.008749999999999999  0.002237335059310139  0.9990287604328676  1.0000
  Cu  Cu64      1.0  0.00625  0.0027853342368950227  0.9988860896413548  1.0000
  Cu  Cu65      1.0  0.00625  0.00611866751613064  0.9990596553719764  1.0000
  Cu  Cu66      1.0  0.00625  0.009452001606831996  0.9992332210814714  1.0000
  Cu  Cu67      1.0  0.00625  0.0027853342368950227  0.9991428970478455  1.0000
  Cu  Cu68      1.0  0.00625  0.00611866751613064  0.999316463071203  1.0000
  Cu  Cu69      1.0  0.00625  0.009452001606831996  0.9989693312183568  1.0000
  Cu  Cu70      1.0  0.00625  0.001095998422791913  0.9993188236205421  1.0000
  Cu  Cu71      1.0  0.00625  0.004429331904893964  0.9989716920762768  1.0000
  Cu  Cu72      1.0  0.00625  0.0077626651841295816  0.9991452578068982  1.0000
  Ru  Ru19      1.0  0.00625  0.004444444642802736  0.9992316472528873  1.0000
  Ru  Ru20      1.0  0.00625  0.007777777922038352  0.9988845157139035  1.0000
  Ru  Ru21      1.0  0.00625  0.001111111160700684  0.9990580815275474  1.0000
  Ru  Ru22      1.0  0.008749999999999999  0.002222222321401368  0.9992895025258623  1.0000
  Ru  Ru23      1.0  0.008749999999999999  0.0055555557358812745  0.9989423709833576  1.0000
  Ru  Ru24      1.0  0.008749999999999999  0.008888889285605472  0.9991159367069369  1.0000
