data_image0
_chemical_formula_structural       COFe8Sb8V8Fe8Sb8V8
_chemical_formula_sum              "C1 O1 Fe16 Sb16 V16"
_cell_length_a       10.085780971481563
_cell_length_b       8.235006332397461
_cell_length_c       108.18415069580078
_cell_angle_alpha    90.0
_cell_angle_beta     84.94884731010903
_cell_angle_gamma    90.0

_space_group_name_H-M_alt    "P 1"
_space_group_IT_number       1

loop_
  _space_group_symop_operation_xyz
  'x, y, z'

loop_
  _atom_site_type_symbol
  _atom_site_label
  _atom_site_symmetry_multiplicity
  _atom_site_fract_x
  _atom_site_fract_y
  _atom_site_fract_z
  _atom_site_occupancy
  C   C1        1.0  0.0019836257617372103  0.0037499998642882538  6.394109398907678e-06  1.0000
  O   O1        1.0  0.0019836257617372103  0.0037499998642882538  0.00011731576138647628  1.0000
  Fe  Fe1       1.0  0.004218750014832025  0.0037499998642882538  0.9996986031978733  1.0000
  Fe  Fe2       1.0  0.0010937500519120878  0.0037499998642882538  0.9994780061323837  1.0000
  Fe  Fe3       1.0  0.007968750192816326  0.0037499998642882538  0.9992574089172839  1.0000
  Fe  Fe4       1.0  0.007343750163152276  0.0037499998642882538  0.9999192002618411  1.0000
  Fe  Fe5       1.0  0.007656250548784927  0.0012499999547627512  0.9995883043110412  1.0000
  Fe  Fe6       1.0  0.00453125002966405  0.0012499999547627512  0.9993677078010723  1.0000
  Fe  Fe7       1.0  0.0014062500667441128  0.0012499999547627512  0.9991471107355827  1.0000
  Fe  Fe8       1.0  0.0007812500370800627  0.0012499999547627512  0.9998089015291847  1.0000
  Sb  Sb1       1.0  0.008281250578448977  0.0012499999547627512  0.9998089016886501  1.0000
  Sb  Sb2       1.0  0.0051562500593281  0.0012499999547627512  0.999588304627726  1.0000
  Sb  Sb3       1.0  0.0020312500964081628  0.0012499999547627512  0.9993677075622363  1.0000
  Sb  Sb4       1.0  0.008906250608113028  0.0012499999547627512  0.9991471106195705  1.0000
  Sb  Sb5       1.0  0.004843750044496075  0.0037499998642882538  0.9999192000245269  1.0000
  Sb  Sb6       1.0  0.0017187500815761378  0.0037499998642882538  0.9996986029590372  1.0000
  Sb  Sb7       1.0  0.008593750222480375  0.0037499998642882538  0.9994780062948928  1.0000
  Sb  Sb8       1.0  0.005468750074160126  0.0037499998642882538  0.999257409230925  1.0000
  V   V1        1.0  0.00390625  0.0012499999547627512  0.999147110698941  1.0000
  V   V2        1.0  0.00328124997033595  0.0012499999547627512  0.9998089017680207  1.0000
  V   V3        1.0  0.00015625000741601252  0.0012499999547627512  0.999588304702531  1.0000
  V   V4        1.0  0.007031250519120877  0.0012499999547627512  0.9993677074843875  1.0000
  V   V5        1.0  0.006718750133488226  0.0037499998642882538  0.9996986028842322  1.0000
  V   V6        1.0  0.003593749985167975  0.0037499998642882538  0.9994780058202644  1.0000
  V   V7        1.0  0.0004687500222480376  0.0037499998642882538  0.99925740930573  1.0000
  V   V8        1.0  0.009843750281808476  0.0037499998642882538  0.9999191999482  1.0000
  Fe  Fe9       1.0  0.004218750014832025  0.008749999457153015  0.9996986031978733  1.0000
  Fe  Fe10      1.0  0.0010937500519120878  0.008749999457153015  0.9994780061323837  1.0000
  Fe  Fe11      1.0  0.007968750192816326  0.008749999457153015  0.9992574089172839  1.0000
  Fe  Fe12      1.0  0.007343750163152276  0.008749999457153015  0.9999192002618411  1.0000
  Fe  Fe13      1.0  0.007656250548784927  0.00625  0.9995883043110412  1.0000
  Fe  Fe14      1.0  0.00453125002966405  0.00625  0.9993677078010723  1.0000
  Fe  Fe15      1.0  0.0014062500667441128  0.00625  0.9991471107355827  1.0000
  Fe  Fe16      1.0  0.0007812500370800627  0.00625  0.9998089015291847  1.0000
  Sb  Sb9       1.0  0.008281250578448977  0.00625  0.9998089016886501  1.0000
  Sb  Sb10      1.0  0.0051562500593281  0.00625  0.999588304627726  1.0000
  Sb  Sb11      1.0  0.0020312500964081628  0.00625  0.9993677075622363  1.0000
  Sb  Sb12      1.0  0.008906250608113028  0.00625  0.9991471106195705  1.0000
  Sb  Sb13      1.0  0.004843750044496075  0.008749999457153015  0.9999192000245269  1.0000
  Sb  Sb14      1.0  0.0017187500815761378  0.008749999457153015  0.9996986029590372  1.0000
  Sb  Sb15      1.0  0.008593750222480375  0.008749999457153015  0.9994780062948928  1.0000
  Sb  Sb16      1.0  0.005468750074160126  0.008749999457153015  0.999257409230925  1.0000
  V   V9        1.0  0.00390625  0.00625  0.999147110698941  1.0000
  V   V10       1.0  0.00328124997033595  0.00625  0.9998089017680207  1.0000
  V   V11       1.0  0.00015625000741601252  0.00625  0.999588304702531  1.0000
  V   V12       1.0  0.007031250519120877  0.00625  0.9993677074843875  1.0000
  V   V13       1.0  0.006718750133488226  0.008749999457153015  0.9996986028842322  1.0000
  V   V14       1.0  0.003593749985167975  0.008749999457153015  0.9994780058202644  1.0000
  V   V15       1.0  0.0004687500222480376  0.008749999457153015  0.99925740930573  1.0000
  V   V16       1.0  0.009843750281808476  0.008749999457153015  0.9999191999482  1.0000
