data_image0
_chemical_formula_structural       HGa6Ni12Ga6Ni12
_chemical_formula_sum              "H1 Ga12 Ni24"
_cell_length_a       5.074714183807373
_cell_length_b       10.812897340476766
_cell_length_c       98.60823822021484
_cell_angle_alpha    79.1066050019585
_cell_angle_beta     90.0
_cell_angle_gamma    90.0

_space_group_name_H-M_alt    "P 1"
_space_group_IT_number       1

loop_
  _space_group_symop_operation_xyz
  'x, y, z'

loop_
  _atom_site_type_symbol
  _atom_site_label
  _atom_site_symmetry_multiplicity
  _atom_site_fract_x
  _atom_site_fract_y
  _atom_site_fract_z
  _atom_site_occupancy
  H   H1        1.0  0.0012519382547488845  0.006867062091891591  0.999943539446779  1.0000
  Ga  Ga1       1.0  0.008749973102990319  0.006111111307584258  0.9992299195977775  1.0000
  Ga  Ga2       1.0  0.008749973102990319  0.0027777778830312496  0.9995062246505124  1.0000
  Ga  Ga3       1.0  0.008749973102990319  0.009444444556714815  0.9993680721914353  1.0000
  Ga  Ga4       1.0  0.0037499727946730672  0.008333333473671295  0.9991838687792969  1.0000
  Ga  Ga5       1.0  0.0037499727946730672  0.00500000022454074  0.9994601738283966  1.0000
  Ga  Ga6       1.0  0.0037499727946730672  0.0016666666245652778  0.9993220212420093  1.0000
  Ni  Ni1       1.0  0.0012499729157977014  0.007222222390627777  0.999414123009916  1.0000
  Ni  Ni2       1.0  0.0012499729157977014  0.0038888891414972215  0.9992759704162582  1.0000
  Ni  Ni3       1.0  0.0012499729157977014  0.0005555555853773726  0.9995522754717195  1.0000
  Ni  Ni4       1.0  0.008749973102990319  0.008333333473671295  0.9991838687792969  1.0000
  Ni  Ni5       1.0  0.008749973102990319  0.00500000022454074  0.9994601738283966  1.0000
  Ni  Ni6       1.0  0.008749973102990319  0.0016666666245652778  0.9993220212420093  1.0000
  Ni  Ni7       1.0  0.0037499727946730672  0.006111111307584258  0.9992299195977775  1.0000
  Ni  Ni8       1.0  0.0037499727946730672  0.0027777778830312496  0.9995062246505124  1.0000
  Ni  Ni9       1.0  0.0037499727946730672  0.009444444556714815  0.9993680721914353  1.0000
  Ni  Ni10      1.0  0.0062499731323538655  0.007222222390627777  0.999414123009916  1.0000
  Ni  Ni11      1.0  0.0062499731323538655  0.0038888891414972215  0.9992759704162582  1.0000
  Ni  Ni12      1.0  0.0062499731323538655  0.0005555555853773726  0.9995522754717195  1.0000
  Ga  Ga7       1.0  0.008749973102990319  0.006111111307584258  0.9996443772405349  1.0000
  Ga  Ga8       1.0  0.00875001347786839  0.0027451601829292993  0.999919345074631  1.0000
  Ga  Ga9       1.0  0.008750026691464848  0.009163792489058353  0.9998248287845324  1.0000
  Ga  Ga10      1.0  0.0037499727946730672  0.008333333473671295  0.9995983264220543  1.0000
  Ga  Ga11      1.0  0.0037498806665421966  0.00514262709926506  0.9998880334024801  1.0000
  Ga  Ga12      1.0  0.003749937558415842  0.0016228790751786648  0.9997310702955016  1.0000
  Ni  Ni13      1.0  0.0012519382547488845  0.007175336179027949  0.9998153725662012  1.0000
  Ni  Ni14      1.0  0.0012527355668296963  0.003887824327206335  0.9996917116311186  1.0000
  Ni  Ni15      1.0  0.0012687178705529378  0.0007415397420662347  0.9999386483403542  1.0000
  Ni  Ni16      1.0  0.008749973102990319  0.008333333473671295  0.9995983264220543  1.0000
  Ni  Ni17      1.0  0.008749905566830637  0.005008967118658195  0.9998758851706779  1.0000
  Ni  Ni18      1.0  0.008749962825748627  0.0015272899770537327  0.999727943496634  1.0000
  Ni  Ni19      1.0  0.0037499727946730672  0.006111111307584258  0.9996443772405349  1.0000
  Ni  Ni20      1.0  0.0037500098661520233  0.0028567804373618006  0.9999168041016661  1.0000
  Ni  Ni21      1.0  0.0037500069297972546  0.00927779673462976  0.9998077374351463  1.0000
  Ni  Ni22      1.0  0.0062479976996831655  0.007175335477338136  0.9998153725807423  1.0000
  Ni  Ni23      1.0  0.006247203415718209  0.0038878229238267096  0.9996917104512825  1.0000
  Ni  Ni24      1.0  0.00623123845484032  0.0007415389526651952  0.9999386459388765  1.0000
