data_image0
_chemical_formula_structural       COSn4Au4Sn4Au4
_chemical_formula_sum              "C1 O1 Sn8 Au8"
_cell_length_a       5.707462310791016
_cell_length_b       7.711838245391846
_cell_length_c       101.16702270507812
_cell_angle_alpha    90.0
_cell_angle_beta     90.0
_cell_angle_gamma    90.0

_space_group_name_H-M_alt    "P 1"
_space_group_IT_number       1

loop_
  _space_group_symop_operation_xyz
  'x, y, z'

loop_
  _atom_site_type_symbol
  _atom_site_label
  _atom_site_symmetry_multiplicity
  _atom_site_fract_x
  _atom_site_fract_y
  _atom_site_fract_z
  _atom_site_occupancy
  C   C1        1.0  0.005000018119096203  0.0008333363460253905  0.00015311898197488356  1.0000
  O   O1        1.0  0.005000018119096203  0.0008333363460253905  0.00027173494988448106  1.0000
  Sn  Sn1       1.0  0.002500006285551024  0.007499999942032649  0.9995596909425479  1.0000
  Sn  Sn2       1.0  0.002500006285551024  0.0024999999806775497  0.9993396374565956  1.0000
  Sn  Sn3       1.0  0.007500006292078076  0.004166666634462583  0.9995596909425479  1.0000
  Sn  Sn4       1.0  0.007500006292078076  0.009166667078878941  0.9993396374565956  1.0000
  Au  Au1       1.0  0.005000006370402699  0.0058333332882476155  0.9993396374565956  1.0000
  Au  Au2       1.0  0.005000006370402699  0.0008333333268925165  0.9995596909425479  1.0000
  Au  Au3       1.0  6.250000073891455e-09  0.0058333332882476155  0.9993396374565956  1.0000
  Au  Au4       1.0  6.250000073891455e-09  0.0008333333268925165  0.9995596909425479  1.0000
  Sn  Sn5       1.0  0.002499994536857521  0.007543092387838741  0.9999999994108293  1.0000
  Sn  Sn6       1.0  0.0024999955159153127  0.0025773962972589263  0.9997748201398565  1.0000
  Sn  Sn7       1.0  0.00750000825019366  0.004123571773350192  0.0  1.0000
  Sn  Sn8       1.0  0.007500006292078076  0.009089292258523628  0.9997748207290272  1.0000
  Au  Au5       1.0  0.0049999606810390744  0.005833330872941317  0.9997858352751142  1.0000
  Au  Au6       1.0  0.005000018119096203  0.0008333363460253905  0.9999819118705847  1.0000
  Au  Au7       1.0  4.80500019922847e-08  0.0058333332882476155  0.9997858346859435  1.0000
  Au  Au8       1.0  0.009999993812354755  0.0008333369498519653  0.9999819124597554  1.0000
