data_image0
_chemical_formula_structural       HSi12Pd36
_chemical_formula_sum              "H1 Si12 Pd36"
_cell_length_a       9.367695146705266
_cell_length_b       7.974193074994664
_cell_length_c       103.20133972167969
_cell_angle_alpha    93.81175326272442
_cell_angle_beta     106.83919725141013
_cell_angle_gamma    67.2722629991018

_space_group_name_H-M_alt    "P 1"
_space_group_IT_number       1

loop_
  _space_group_symop_operation_xyz
  'x, y, z'

loop_
  _atom_site_type_symbol
  _atom_site_label
  _atom_site_symmetry_multiplicity
  _atom_site_fract_x
  _atom_site_fract_y
  _atom_site_fract_z
  _atom_site_occupancy
  H   H1        1.0  0.00015376960096556553  0.008359450794179055  0.00019962637210926642  1.0000
  Si  Si1       1.0  0.0013397810464971587  0.009037617542221585  0.9998800540612847  1.0000
  Si  Si2       1.0  0.004673114469844134  0.0023709506804966596  0.9991651337877093  1.0000
  Si  Si3       1.0  0.008006447893191108  0.005704284155878646  0.999522593835867  1.0000
  Si  Si4       1.0  0.0053667964987429775  0.0009835862974414261  0.999775713168728  1.0000
  Si  Si5       1.0  0.008652131947900968  0.004137276836628534  0.000120850187737765  1.0000
  Si  Si6       1.0  0.0020334633004301067  0.007650252827588719  0.9994182529590246  1.0000
  Si  Si7       1.0  0.00820836019340403  0.0009061968431034935  0.9995442466675286  1.0000
  Si  Si8       1.0  0.001541693571744185  0.004239530131970822  0.9999017068983629  1.0000
  Si  Si9       1.0  0.004875027220125264  0.007572863041673152  0.9991867864620393  1.0000
  Si  Si10      1.0  0.002235376050711237  0.0028521655539643677  0.999439905802722  1.0000
  Si  Si11      1.0  0.005568709249024108  0.006185498424515896  0.9997973661306339  1.0000
  Si  Si12      1.0  0.008662947086956922  0.009581745618895122  0.00013716531816919533  1.0000
  Pd  Pd1       1.0  0.00978101013164747  0.002659458003196275  0.9995003094422878  1.0000
  Pd  Pd2       1.0  0.003114343059919417  0.005992791487014825  0.9998577699510673  1.0000
  Pd  Pd3       1.0  0.006540868731738032  0.009397841709893889  0.0001991682677884654  1.0000
  Pd  Pd4       1.0  0.0026068560492479753  0.003043033397948176  0.9996923278414646  1.0000
  Pd  Pd5       1.0  0.005966482232315272  0.006353944223905077  5.256428689949726e-05  1.0000
  Pd  Pd6       1.0  0.00927352312097603  0.009709699783032493  0.9993348674532986  1.0000
  Pd  Pd7       1.0  0.008325146592616404  0.00016832669060950846  0.9997693558746562  1.0000
  Pd  Pd8       1.0  0.0014581665380551752  0.003559935746992084  0.00012042478620695426  1.0000
  Pd  Pd9       1.0  0.004991813169269429  0.006834992850028365  0.9994118953683528  1.0000
  Pd  Pd10      1.0  0.006437301735952687  0.00790874733675867  0.9996779269493771  1.0000
  Pd  Pd11      1.0  0.009846230415911992  0.0011319570100175869  4.312457900271797e-05  1.0000
  Pd  Pd12      1.0  0.0031039685376398163  0.004575414232105119  0.9993204669090411  1.0000
  Pd  Pd13      1.0  0.0070378142448244314  0.00869779169735457  0.9999500985623496  1.0000
  Pd  Pd14      1.0  0.0004232333137301624  0.0021478565276805296  0.9992455751098186  1.0000
  Pd  Pd15      1.0  0.0037565667652064002  0.005481189756776042  0.9996030351574507  1.0000
  Pd  Pd16      1.0  0.007134773339169098  0.008724776277150702  0.9994291173411399  1.0000
  Pd  Pd17      1.0  0.0004681068018970411  0.0020581096605618104  0.999786577453392  1.0000
  Pd  Pd18      1.0  0.003718569756683765  0.005209167868132367  0.00012453827274357704  1.0000
  Pd  Pd19      1.0  0.006440383803046119  0.003165006771447886  0.999890842627766  1.0000
  Pd  Pd20      1.0  0.009773717226393095  0.006498340246829873  0.9991759221884308  1.0000
  Pd  Pd21      1.0  0.0031070501546650395  0.009831672794240331  0.9995333824036218  1.0000
  Pd  Pd22      1.0  0.006485256953661841  0.00307525981644056  0.9993594644745191  1.0000
  Pd  Pd23      1.0  0.009818590827077025  0.006408592628667279  0.999716924531105  1.0000
  Pd  Pd24      1.0  0.0031851880716226304  0.009543280009500379  7.249859112655929e-05  1.0000
  Pd  Pd25      1.0  0.00713785540626253  0.003981035243635872  0.9996420327283453  1.0000
  Pd  Pd26      1.0  0.0004440370978352511  0.007379918223017516  7.817759038019934e-06  1.0000
  Pd  Pd27      1.0  0.0038045219829155544  0.0006477020023559079  0.9992845726813903  1.0000
  Pd  Pd28      1.0  0.005250010549598813  0.0017214562549841901  0.999550604261212  1.0000
  Pd  Pd29      1.0  0.008583343522877578  0.005054789925317399  0.9999080645873148  1.0000
  Pd  Pd30      1.0  0.0019166771262518376  0.008388123116709117  0.9991931440472945  1.0000
  Pd  Pd31      1.0  0.0009683010479604204  0.008846748995931708  0.9996276325964913  1.0000
  Pd  Pd32      1.0  0.004281894029603974  0.0020897599003156693  0.999982815470152  1.0000
  Pd  Pd33      1.0  0.00763496789465437  0.005513415609588769  0.9992701720822953  1.0000
  Pd  Pd34      1.0  0.003794147460635954  0.009230324382247046  0.9998196502462678  1.0000
  Pd  Pd35      1.0  0.007103679926900281  0.0026687007234036113  0.00017289407489438165  1.0000
  Pd  Pd36      1.0  0.00046081400915971615  0.005896991387253556  0.9994621901998382  1.0000
