data_image0
_chemical_formula_structural       COAs8Ca4Ni8
_chemical_formula_sum              "C1 O1 As8 Ca4 Ni8"
_cell_length_a       5.847208087175785
_cell_length_b       5.846551895141602
_cell_length_c       105.07931518554688
_cell_angle_alpha    90.0
_cell_angle_beta     90.0
_cell_angle_gamma    119.99628775793987

_space_group_name_H-M_alt    "P 1"
_space_group_IT_number       1

loop_
  _space_group_symop_operation_xyz
  'x, y, z'

loop_
  _atom_site_type_symbol
  _atom_site_label
  _atom_site_symmetry_multiplicity
  _atom_site_fract_x
  _atom_site_fract_y
  _atom_site_fract_z
  _atom_site_occupancy
  C   C1        1.0  0.00500023591940034  0.007500441569320117  0.00015988307085276394  1.0000
  O   O1        1.0  0.00500023591940034  0.007500441569320117  0.0002740821850443725  1.0000
  As  As1       1.0  0.008628890735375263  0.004314754585305085  0.9991651307687689  1.0000
  As  As2       1.0  0.008628890735375263  0.00931475464081776  0.9994433276750829  1.0000
  As  As3       1.0  0.003873277928148911  0.001936948185755937  0.9994433276750829  1.0000
  As  As4       1.0  0.003873277928148911  0.006936948237204585  0.9991651307687689  1.0000
  As  As5       1.0  0.008565398476179894  0.00428376010574648  0.9997231145405533  1.0000
  As  As6       1.0  0.008750376352869392  0.009375579964028444  0.9999999137803097  1.0000
  As  As7       1.0  0.003751593320328022  0.0018759212819607067  0.0  1.0000
  As  As8       1.0  0.003945284104337845  0.006972950050944401  0.9997229063653801  1.0000
  Ca  Ca1       1.0  0.001251084368544033  0.0006258514582025053  0.9991651307687689  1.0000
  Ca  Ca2       1.0  0.001251084368544033  0.005625851457402145  0.9994433276750829  1.0000
  Ca  Ca3       1.0  0.0012496237574764456  0.0006250720526800587  0.9997249313936312  1.0000
  Ca  Ca4       1.0  0.0012500956698410172  0.005625302947977992  0.9999901862706524  1.0000
  Ni  Ni1       1.0  0.006251084331762087  0.0056258514772418115  0.9990260323156118  1.0000
  Ni  Ni2       1.0  0.006251084331762087  0.0006258513944087586  0.9993042295055433  1.0000
  Ni  Ni3       1.0  0.006251084331762087  0.0006258513944087586  0.9990260323156118  1.0000
  Ni  Ni4       1.0  0.006251084331762087  0.0056258514772418115  0.9993042295055433  1.0000
  Ni  Ni5       1.0  0.006251084331762087  0.0056258514772418115  0.9995824266954748  1.0000
  Ni  Ni6       1.0  0.0062499433558034735  0.0006244202391573749  0.9998648058240003  1.0000
  Ni  Ni7       1.0  0.006251084331762087  0.0006258513944087586  0.9995824266954748  1.0000
  Ni  Ni8       1.0  0.006249939677608894  0.005626055869324691  0.999864818303166  1.0000
