data_image0
_chemical_formula_structural       COCr2Si4Cr2Si4Cr2Si4Cr2Si4Cr2Si4Cr2Si4
_chemical_formula_sum              "C1 O1 Cr12 Si24"
_cell_length_a       6.189797401428223
_cell_length_b       7.564833641052246
_cell_length_c       100.94898986816406
_cell_angle_alpha    90.0
_cell_angle_beta     90.0
_cell_angle_gamma    90.0

_space_group_name_H-M_alt    "P 1"
_space_group_IT_number       1

loop_
  _space_group_symop_operation_xyz
  'x, y, z'

loop_
  _atom_site_type_symbol
  _atom_site_label
  _atom_site_symmetry_multiplicity
  _atom_site_fract_x
  _atom_site_fract_y
  _atom_site_fract_z
  _atom_site_occupancy
  C   C1        1.0  0.002499999416211654  0.0008147553403429937  0.00015320879239268822  1.0000
  O   O1        1.0  0.002499999416211654  0.0008147553403429937  0.0002720809508399069  1.0000
  Cr  Cr1       1.0  5.499999964552753e-10  0.0008147553403429937  0.9993836142002365  1.0000
  Cr  Cr2       1.0  0.002500000469438052  0.005814755480690791  0.999230323926682  1.0000
  Si  Si1       1.0  0.002500000469438052  0.0024442659594729296  0.999230323926682  1.0000
  Si  Si2       1.0  5.499999964552753e-10  0.0041852446768927  0.9993836142002365  1.0000
  Si  Si3       1.0  5.499999964552753e-10  0.00744426579204047  0.9993836142002365  1.0000
  Si  Si4       1.0  0.002500000469438052  0.009185245248132856  0.999230323926682  1.0000
  Cr  Cr3       1.0  5.499999964552753e-10  0.0008147553403429937  0.9996901947473454  1.0000
  Cr  Cr4       1.0  0.002500000469438052  0.005814755480690791  0.999536904473791  1.0000
  Si  Si5       1.0  0.002500000469438052  0.0024442659594729296  0.999536904473791  1.0000
  Si  Si6       1.0  5.499999964552753e-10  0.0041852446768927  0.9996901947473454  1.0000
  Si  Si7       1.0  5.499999964552753e-10  0.00744426579204047  0.9996901947473454  1.0000
  Si  Si8       1.0  0.002500000469438052  0.009185245248132856  0.999536904473791  1.0000
  Cr  Cr5       1.0  0.009999999470377583  0.0008147553403429937  0.9999816319024416  1.0000
  Cr  Cr6       1.0  0.0024999997171334816  0.00581475449579397  0.9998382404091618  1.0000
  Si  Si9       1.0  0.0024999992657507397  0.00249738390721774  0.9998469010300428  1.0000
  Si  Si10      1.0  0.009999998266690272  0.004140480623975156  0.0  1.0000
  Si  Si11      1.0  0.009999998266690272  0.007489030829854835  0.0  1.0000
  Si  Si12      1.0  0.0024999992657507397  0.009132129762630095  0.9998469010300428  1.0000
  Cr  Cr7       1.0  0.005000000337032448  0.0008147553403429937  0.9993836142002365  1.0000
  Cr  Cr8       1.0  0.007500000505548671  0.005814755480690791  0.999230323926682  1.0000
  Si  Si13      1.0  0.007500000505548671  0.0024442659594729296  0.999230323926682  1.0000
  Si  Si14      1.0  0.005000000337032448  0.0041852446768927  0.9993836142002365  1.0000
  Si  Si15      1.0  0.005000000337032448  0.00744426579204047  0.9993836142002365  1.0000
  Si  Si16      1.0  0.007500000505548671  0.009185245248132856  0.999230323926682  1.0000
  Cr  Cr9       1.0  0.005000000337032448  0.0008147553403429937  0.9996901947473454  1.0000
  Cr  Cr10      1.0  0.007500000505548671  0.005814755480690791  0.999536904473791  1.0000
  Si  Si17      1.0  0.007500000505548671  0.0024442659594729296  0.999536904473791  1.0000
  Si  Si18      1.0  0.005000000337032448  0.0041852446768927  0.9996901947473454  1.0000
  Si  Si19      1.0  0.005000000337032448  0.00744426579204047  0.9996901947473454  1.0000
  Si  Si20      1.0  0.007500000505548671  0.009185245248132856  0.999536904473791  1.0000
  Cr  Cr11      1.0  0.004999999434266963  0.0008147553403429937  0.9999816319024416  1.0000
  Cr  Cr12      1.0  0.007499999903705016  0.00581475449579397  0.9998382404091618  1.0000
  Si  Si21      1.0  0.007499999301861359  0.00249738390721774  0.9998469010300428  1.0000
  Si  Si22      1.0  0.004999998531501479  0.004140480623975156  0.0  1.0000
  Si  Si23      1.0  0.004999998531501479  0.007489030829854835  0.0  1.0000
  Si  Si24      1.0  0.007499999301861359  0.009132129762630095  0.9998469010300428  1.0000
