data_image0
_chemical_formula_structural       HV2Pt6V2Pt6V2Pt6V2Pt6
_chemical_formula_sum              "H1 V8 Pt24"
_cell_length_a       7.858160972595215
_cell_length_b       5.556559085845947
_cell_length_c       103.33935546875
_cell_angle_alpha    90.0
_cell_angle_beta     90.0
_cell_angle_gamma    90.0

_space_group_name_H-M_alt    "P 1"
_space_group_IT_number       1

loop_
  _space_group_symop_operation_xyz
  'x, y, z'

loop_
  _atom_site_type_symbol
  _atom_site_label
  _atom_site_symmetry_multiplicity
  _atom_site_fract_x
  _atom_site_fract_y
  _atom_site_fract_z
  _atom_site_occupancy
  H   H1        1.0  0.001249999985778007  0.005000001769938236  0.00011922387591606462  1.0000
  V   V1        1.0  0.0012499998672614002  0.00500000076429151  0.9992085625832786  1.0000
  V   V2        1.0  0.0012499998672614002  9.999999429168632e-10  0.9994774127003264  1.0000
  Pt  Pt1       1.0  0.0012499998672614002  0.00500000076429151  0.9994774127003264  1.0000
  Pt  Pt2       1.0  0.0012499998672614002  9.999999429168632e-10  0.9992085625832786  1.0000
  Pt  Pt3       1.0  0.0037499998388174144  0.007500000643613903  0.9990741375247547  1.0000
  Pt  Pt4       1.0  0.0037499998388174144  0.002500000884969118  0.9993429876418025  1.0000
  Pt  Pt5       1.0  0.0037499998388174144  0.002500000884969118  0.9990741375247547  1.0000
  Pt  Pt6       1.0  0.0037499998388174144  0.007500000643613903  0.9993429876418025  1.0000
  V   V3        1.0  0.0012499998672614002  0.0050000000938603606  0.9997497662126752  1.0000
  V   V4        1.0  0.001249999985778007  0.009999998846858421  0.999989655928329  1.0000
  Pt  Pt7       1.0  0.001249999985778007  0.005000001769938236  0.0  1.0000
  Pt  Pt8       1.0  0.001249999985778007  2.1999999063857473e-09  0.9997454668533446  1.0000
  Pt  Pt9       1.0  0.0037499998388174144  0.007500000643613903  0.9996118377588503  1.0000
  Pt  Pt10      1.0  0.003750000075850628  0.0024215109961113705  0.9998970749295528  1.0000
  Pt  Pt11      1.0  0.0037499998388174144  0.002500000884969118  0.9996118377588503  1.0000
  Pt  Pt12      1.0  0.003750000075850628  0.007578487347923688  0.9998970743527673  1.0000
  V   V5        1.0  0.006249999810373428  0.00500000076429151  0.9992085625832786  1.0000
  V   V6        1.0  0.006249999810373428  9.999999429168632e-10  0.9994774127003264  1.0000
  Pt  Pt13      1.0  0.006249999810373428  0.00500000076429151  0.9994774127003264  1.0000
  Pt  Pt14      1.0  0.006249999810373428  9.999999429168632e-10  0.9992085625832786  1.0000
  Pt  Pt15      1.0  0.008749999544896228  0.007500000643613903  0.9990741375247547  1.0000
  Pt  Pt16      1.0  0.008749999544896228  0.002500000884969118  0.9993429876418025  1.0000
  Pt  Pt17      1.0  0.008749999544896228  0.002500000884969118  0.9990741375247547  1.0000
  Pt  Pt18      1.0  0.008749999544896228  0.007500000643613903  0.9993429876418025  1.0000
  V   V7        1.0  0.006249999810373428  0.0050000000938603606  0.9997497662126752  1.0000
  V   V8        1.0  0.006249999810373428  0.009999998846858421  0.999989655928329  1.0000
  Pt  Pt19      1.0  0.006249999810373428  0.005000001769938236  0.0  1.0000
  Pt  Pt20      1.0  0.006249999810373428  2.1999999063857473e-09  0.9997454668533446  1.0000
  Pt  Pt21      1.0  0.008749999544896228  0.007500000643613903  0.9996118377588503  1.0000
  Pt  Pt22      1.0  0.008750000493029084  0.0024215109961113705  0.9998970749295528  1.0000
  Pt  Pt23      1.0  0.008749999544896228  0.002500000884969118  0.9996118377588503  1.0000
  Pt  Pt24      1.0  0.008750000493029084  0.007578487347923688  0.9998970743527673  1.0000
