data_image0
_chemical_formula_structural       COAl12Ir6Ru6
_chemical_formula_sum              "C1 O1 Al12 Ir6 Ru6"
_cell_length_a       7.399576130200762
_cell_length_b       6.041728973388672
_cell_length_c       102.53570556640625
_cell_angle_alpha    90.0
_cell_angle_beta     85.65224690097574
_cell_angle_gamma    114.09484409062736

_space_group_name_H-M_alt    "P 1"
_space_group_IT_number       1

loop_
  _space_group_symop_operation_xyz
  'x, y, z'

loop_
  _atom_site_type_symbol
  _atom_site_label
  _atom_site_symmetry_multiplicity
  _atom_site_fract_x
  _atom_site_fract_y
  _atom_site_fract_z
  _atom_site_occupancy
  C   C1        1.0  0.008874193009316194  0.004237298310688325  5.551057621875734e-05  1.0000
  O   O1        1.0  0.008874193009316194  0.004237298310688325  0.00017254263493198904  1.0000
  Al  Al1       1.0  0.008135006618955502  0.0063910535858931255  0.9998669561941322  1.0000
  Al  Al2       1.0  0.004791666843757728  0.004695956848095698  0.9993335896198676  1.0000
  Al  Al3       1.0  0.006458333355469716  0.0005292903259253212  0.9995980153103864  1.0000
  Al  Al4       1.0  0.004791666843757728  0.00969595662612207  0.9993335896198676  1.0000
  Al  Al5       1.0  0.006458333355469716  0.005529290258100046  0.9995980153103864  1.0000
  Al  Al6       1.0  0.008134946850722365  0.0013434463426842337  0.9998670018630031  1.0000
  Al  Al7       1.0  0.0022872666400250877  0.003446497195661062  0.9997277805248777  1.0000
  Al  Al8       1.0  0.003716645241747362  0.009139539221241593  0.9999796666845501  1.0000
  Al  Al9       1.0  0.0006250000110681913  0.0076126232097773  0.9994658024772376  1.0000
  Al  Al10      1.0  0.003716677616206977  0.004178083161666559  0.9999795851245606  1.0000
  Al  Al11      1.0  0.0006250000110681913  0.00261262343175093  0.9994658024772376  1.0000
  Al  Al12      1.0  0.0022871403242916304  0.008440625814150832  0.9997278021429601  1.0000
  Ir  Ir1       1.0  0.0035416668216213453  0.0015709569094772328  0.9995319087477286  1.0000
  Ir  Ir2       1.0  0.005258576834427863  0.007429668235304471  0.9997964688017333  1.0000
  Ir  Ir3       1.0  0.001875000033204574  0.005737623331832306  0.9992674830587236  1.0000
  Ir  Ir4       1.0  0.009375000442727653  0.004487623777836019  0.9996641215793636  1.0000
  Ir  Ir5       1.0  0.0010059547046400905  0.00030404315987263774  0.9999191139140755  1.0000
  Ir  Ir6       1.0  0.007708333377606099  0.008654290004033068  0.9993996958918724  1.0000
  Ru  Ru1       1.0  0.0035416668216213453  0.006570956726040692  0.9995319087477286  1.0000
  Ru  Ru2       1.0  0.005311662647053761  0.0024549067868053294  0.9998022134970029  1.0000
  Ru  Ru3       1.0  0.001875000033204574  0.0007376235730744798  0.9992674830587236  1.0000
  Ru  Ru4       1.0  0.009375000442727653  0.009487623536593846  0.9996641215793636  1.0000
  Ru  Ru5       1.0  0.0009936645158204653  0.005297914375900129  0.9999240513358303  1.0000
  Ru  Ru6       1.0  0.007708333377606099  0.0036542903030808748  0.9993996958918724  1.0000
