data_image0
_chemical_formula_structural       HSn16V8
_chemical_formula_sum              "H1 Sn16 V8"
_cell_length_a       5.520762231819833
_cell_length_b       9.853033771895264
_cell_length_c       107.26897430419922
_cell_angle_alpha    89.33121796823467
_cell_angle_beta     88.35120355882607
_cell_angle_gamma    81.82710469725156

_space_group_name_H-M_alt    "P 1"
_space_group_IT_number       1

loop_
  _space_group_symop_operation_xyz
  'x, y, z'

loop_
  _atom_site_type_symbol
  _atom_site_label
  _atom_site_symmetry_multiplicity
  _atom_site_fract_x
  _atom_site_fract_y
  _atom_site_fract_z
  _atom_site_occupancy
  H   H1        1.0  0.00480891304320496  0.007547794300636137  1.262277666000434e-06  1.0000
  Sn  Sn1       1.0  0.0013814510589417464  0.00043880167410947836  0.9993826366232689  1.0000
  Sn  Sn2       1.0  0.006224908413183577  0.009218002885075542  0.9998370946536403  1.0000
  Sn  Sn3       1.0  0.006388045123910106  0.0008549187355680217  0.9992380631908677  1.0000
  Sn  Sn4       1.0  0.0013880451836286896  0.009604918819602789  0.9996723564836892  1.0000
  Sn  Sn5       1.0  0.004969687143529398  0.004255283061123431  0.9997870454535548  1.0000
  Sn  Sn6       1.0  0.0001380451142335854  0.005542418773765644  0.9993466364286591  1.0000
  Sn  Sn7       1.0  0.005131450649852589  0.005126301903295209  0.9994912104837815  1.0000
  Sn  Sn8       1.0  0.009861955067131903  0.0038683617789291307  0.9999212710849287  1.0000
  Sn  Sn9       1.0  0.0017272637254177497  0.006964783235035675  0.9999361919782845  1.0000
  Sn  Sn10      1.0  0.006804496042333695  0.008447805137759815  0.9994910379367596  1.0000
  Sn  Sn11      1.0  0.0009118062197164391  0.0003950812730264432  0.9999982261780367  1.0000
  Sn  Sn12      1.0  0.005965000065779068  0.0015959158334227258  0.9995639555143924  1.0000
  Sn  Sn13      1.0  0.009715000018410087  0.006283415967114402  0.9996725288188157  1.0000
  Sn  Sn14      1.0  0.004715000184294555  0.0075334159518353535  0.9992382355283648  1.0000
  Sn  Sn15      1.0  0.0005544962548493662  0.0031353047252254992  0.9995996113830762  1.0000
  Sn  Sn16      1.0  0.0054910832702657186  0.0020851573716349665  3.384487628766549e-05  1.0000
  V   V1        1.0  0.003139545418915555  0.0017807106755544607  0.99979751459733  1.0000
  V   V2        1.0  0.008246827924482362  0.0030390600874382065  0.9993657587644766  1.0000
  V   V3        1.0  0.004522668207821705  0.0070046607882502795  0.999689234686742  1.0000
  V   V4        1.0  0.009522667444383614  0.008254660390995013  0.9992549411869274  1.0000
  V   V5        1.0  0.00820246336697412  0.0016544129128814554  0.9997934470963774  1.0000
  V   V6        1.0  0.0032726681868092086  0.0029421605514250242  0.9993635146318449  1.0000
  V   V7        1.0  0.00673514058718238  0.006501422399985059  0.9998857166726239  1.0000
  V   V8        1.0  0.0019968281071868913  0.0077265606986001555  0.9994743322791967  1.0000
