data_image0
_chemical_formula_structural       CONa8
_chemical_formula_sum              "C1 O1 Na8"
_cell_length_a       6.641829967498779
_cell_length_b       7.2784469266751906
_cell_length_c       100.67729949951172
_cell_angle_alpha    105.27343776433538
_cell_angle_beta     90.0
_cell_angle_gamma    62.85351650608269

_space_group_name_H-M_alt    "P 1"
_space_group_IT_number       1

loop_
  _space_group_symop_operation_xyz
  'x, y, z'

loop_
  _atom_site_type_symbol
  _atom_site_label
  _atom_site_symmetry_multiplicity
  _atom_site_fract_x
  _atom_site_fract_y
  _atom_site_fract_z
  _atom_site_occupancy
  C   C1        1.0  0.004104802861897018  0.007978529900364236  0.0003416958017988847  1.0000
  O   O1        1.0  0.004104802861897018  0.007978529900364236  0.0004608887517324819  1.0000
  Na  Na1       1.0  0.0004166666876595933  0.002021469708220558  0.9996576110816738  1.0000
  Na  Na2       1.0  0.00541666653061232  0.002021469708220558  0.9994671680085966  1.0000
  Na  Na3       1.0  0.004583332942914426  0.00702146973832942  0.9997528327016709  1.0000
  Na  Na4       1.0  0.009583332785867154  0.00702146973832942  0.9995623896285938  1.0000
  Na  Na5       1.0  0.0004166666876595933  0.002021469708220558  3.849752384655359e-05  1.0000
  Na  Na6       1.0  0.00541666653061232  0.002021469708220558  0.9998480544507693  1.0000
  Na  Na7       1.0  0.004583332942914426  0.00702146973832942  0.0001337191438436823  1.0000
  Na  Na8       1.0  0.009583332785867154  0.00702146973832942  0.9999432760707665  1.0000
