data_image0
_chemical_formula_structural       Pt8W4CO
_chemical_formula_sum              "Pt8 W4 C1 O1"
_cell_length_a       4.845183463049161
_cell_length_b       4.845183522879756
_cell_length_c       102.1593246459961
_cell_angle_alpha    91.44631595249233
_cell_angle_beta     91.44631597035591
_cell_angle_gamma    119.71002274310159

_space_group_name_H-M_alt    "P 1"
_space_group_IT_number       1

loop_
  _space_group_symop_operation_xyz
  'x, y, z'

loop_
  _atom_site_type_symbol
  _atom_site_label
  _atom_site_symmetry_multiplicity
  _atom_site_fract_x
  _atom_site_fract_y
  _atom_site_fract_z
  _atom_site_occupancy
  Pt  Pt1       1.0  0.008129474819263433  0.004807135173540611  0.9995584426495469  1.0000
  Pt  Pt2       1.0  0.004558045883483298  0.0012357062445191194  0.9993335886138646  1.0000
  Pt  Pt3       1.0  0.001298229066590822  0.004495523069800048  0.9993335886138746  1.0000
  Pt  Pt4       1.0  0.004869658153508538  0.00806695210958041  0.9995584426498705  1.0000
  Pt  Pt5       1.0  0.005541245586376717  0.002174910996299314  9.236930392512108e-06  1.0000
  Pt  Pt6       1.0  0.0017841044838829271  0.008475787019562404  0.9997819291879362  1.0000
  Pt  Pt7       1.0  0.008538309339689595  0.0017215809258100303  0.9997819291864543  1.0000
  Pt  Pt8       1.0  0.002237433801726823  0.0054787224627578  9.236930011608498e-06  1.0000
  W   W1        1.0  0.007928137688179071  0.007865614637222988  0.9993335886170182  1.0000
  W   W2        1.0  0.0014995660807479258  0.0014370432738410645  0.9995584426458657  1.0000
  W   W3        1.0  0.005176057771771274  0.00511353452186307  0.9997919113624654  1.0000
  W   W4        1.0  0.00870177210267047  0.008639249389022179  0.9999961261681258  1.0000
  C   C1        1.0  0.005493483971591096  0.008764294380160902  0.00020063922125238261  1.0000
  O   O1        1.0  0.005493483971591096  0.008764294380160902  0.0003181030392668196  1.0000
