data_image0
_chemical_formula_structural       COMn6Ir2Mn6Ir2
_chemical_formula_sum              "C1 O1 Mn12 Ir4"
_cell_length_a       5.188294410705566
_cell_length_b       5.188294253170602
_cell_length_c       98.43585968017578
_cell_angle_alpha    90.0
_cell_angle_beta     90.0
_cell_angle_gamma    120.00000100441774

_space_group_name_H-M_alt    "P 1"
_space_group_IT_number       1

loop_
  _space_group_symop_operation_xyz
  'x, y, z'

loop_
  _atom_site_type_symbol
  _atom_site_label
  _atom_site_symmetry_multiplicity
  _atom_site_fract_x
  _atom_site_fract_y
  _atom_site_fract_z
  _atom_site_occupancy
  C   C1        1.0  0.0012194380492518446  0.004125809997084766  0.0001712809448554644  1.0000
  O   O1        1.0  0.0012194380492518446  0.004125809997084766  0.0002931879852133573  1.0000
  Mn  Mn1       1.0  0.0019127401181106164  0.0031305544881587563  0.9993797111085254  1.0000
  Mn  Mn2       1.0  0.007214473083686049  0.008432287505709488  0.9993797111085254  1.0000
  Mn  Mn3       1.0  0.0019127401700859145  0.008432287505709488  0.9993797111085254  1.0000
  Mn  Mn4       1.0  0.008780561913486131  0.0068661982655945425  0.999586051824749  1.0000
  Mn  Mn5       1.0  0.0034788291274152707  0.0015644652480438107  0.999586051824749  1.0000
  Mn  Mn6       1.0  0.00878056222051998  0.0015644652480438107  0.999586051824749  1.0000
  Ir  Ir1       1.0  0.007013317574302554  0.003331709587227388  0.9993797111085254  1.0000
  Ir  Ir2       1.0  0.0036799843536571755  0.006665042959251875  0.999586051824749  1.0000
  Mn  Mn7       1.0  0.0019096824917919156  0.0031239515664717023  0.9998000117688399  1.0000
  Mn  Mn8       1.0  0.007221368274047846  0.008435474551285209  0.9998000196405686  1.0000
  Mn  Mn9       1.0  0.0019095047660823896  0.008435535075303686  0.9998000181267747  1.0000
  Mn  Mn10      1.0  0.00875871667032978  0.0068221056890375295  0.9999906483863005  1.0000
  Mn  Mn11      1.0  0.0035228220751612623  0.0015863952555881878  0.99999064596423  1.0000
  Mn  Mn12      1.0  0.008758667412633231  0.0015866528972147888  0.9999906477807828  1.0000
  Ir  Ir3       1.0  0.007013259096267622  0.0033321175025300036  0.9997919753393515  1.0000
  Ir  Ir4       1.0  0.003680208162614627  0.006664967096954742  0.0  1.0000
