data_image0
_chemical_formula_structural       COCa18Zn6
_chemical_formula_sum              "C1 O1 Ca18 Zn6"
_cell_length_a       7.0305843410581526
_cell_length_b       13.231146320743752
_cell_length_c       107.93301391601562
_cell_angle_alpha    84.720503647449
_cell_angle_beta     85.8081729374485
_cell_angle_gamma    79.32533421827515

_space_group_name_H-M_alt    "P 1"
_space_group_IT_number       1

loop_
  _space_group_symop_operation_xyz
  'x, y, z'

loop_
  _atom_site_type_symbol
  _atom_site_label
  _atom_site_symmetry_multiplicity
  _atom_site_fract_x
  _atom_site_fract_y
  _atom_site_fract_z
  _atom_site_occupancy
  C   C1        1.0  0.009405924427531819  0.002675758845826088  0.9999250332693459  1.0000
  O   O1        1.0  0.009405924427531819  0.002675758845826088  3.6213012027636164e-05  1.0000
  Ca  Ca1       1.0  0.005478647280103934  0.005719247951268863  0.9992334409718399  1.0000
  Ca  Ca2       1.0  0.007160223543627798  0.009034144746315986  0.999817946782156  1.0000
  Ca  Ca3       1.0  0.006311980708775774  0.007385914985853197  0.9995263159606746  1.0000
  Ca  Ca4       1.0  0.0036880191189521787  0.002614085209603063  0.999566410922106  1.0000
  Ca  Ca5       1.0  0.002854685810306565  0.0009474186061722456  0.9992735364800738  1.0000
  Ca  Ca6       1.0  0.004532016358107335  0.004305374559225436  0.9998479253578506  1.0000
  Ca  Ca7       1.0  0.001341131505336441  0.003974049752825552  0.9992596429257034  1.0000
  Ca  Ca8       1.0  0.0029555528182951107  0.00737415254304324  0.9998381799507269  1.0000
  Ca  Ca9       1.0  0.0021744647654423845  0.005640716499974209  0.9995525179185829  1.0000
  Ca  Ca10      1.0  0.007825535327930807  0.0043592836954820515  0.9995402089629328  1.0000
  Ca  Ca11      1.0  0.006992201802179625  0.0026926169483333954  0.9992473345235555  1.0000
  Ca  Ca12      1.0  0.008663498956586352  0.005966212110826809  0.9998253919860278  1.0000
  Ca  Ca13      1.0  0.008398374757924583  0.0018457256649872696  0.9997598838414685  1.0000
  Ca  Ca14      1.0  0.007623636809007569  0.00016687530990165046  0.99946925239657  1.0000
  Ca  Ca15      1.0  0.006790303277979077  0.008500208830068174  0.9991763774571889  1.0000
  Ca  Ca16      1.0  0.0031505746097857555  0.0015681470188146473  0.9999046262806499  1.0000
  Ca  Ca17      1.0  0.002376362945910878  0.009833125101131369  0.999623475036363  1.0000
  Ca  Ca18      1.0  0.0015430295172390372  0.008166458066547035  0.9993306000475283  1.0000
  Zn  Zn1       1.0  0.0010230519665699283  0.009700049280731997  0.9998935954853904  1.0000
  Zn  Zn2       1.0  0.00015372881975890952  0.007921415127059999  0.9996204167518473  1.0000
  Zn  Zn3       1.0  0.009320395465467734  0.006254748092475664  0.9993275421437022  1.0000
  Zn  Zn4       1.0  0.000701155228853698  0.0037198074344681606  0.9997673356538256  1.0000
  Zn  Zn5       1.0  0.00984627127361428  0.002078585068396262  0.9994723106819059  1.0000
  Zn  Zn6       1.0  0.009012937155898036  0.00041191850089490454  0.9991794356910834  1.0000
