data_image0
_chemical_formula_structural       COIn36Ir12
_chemical_formula_sum              "C1 O1 In36 Ir12"
_cell_length_a       7.154809474945068
_cell_length_b       16.368061273239437
_cell_length_c       111.06031036376953
_cell_angle_alpha    70.10747459334165
_cell_angle_beta     90.0
_cell_angle_gamma    90.0

_space_group_name_H-M_alt    "P 1"
_space_group_IT_number       1

loop_
  _space_group_symop_operation_xyz
  'x, y, z'

loop_
  _atom_site_type_symbol
  _atom_site_label
  _atom_site_symmetry_multiplicity
  _atom_site_fract_x
  _atom_site_fract_y
  _atom_site_fract_z
  _atom_site_occupancy
  C   C1        1.0  0.0006386431833829922  0.005707894567711877  0.9997137660008871  1.0000
  O   O1        1.0  0.0006386431833829922  0.005707894567711877  0.9998218150840811  1.0000
  In  In1       1.0  0.00358345476246046  0.009784384547093595  0.9989596204062441  1.0000
  In  In2       1.0  0.00358345476246046  0.003117717790066518  0.9992677136007824  1.0000
  In  In3       1.0  0.00374373554538461  0.006436924932155339  0.9995739690690378  1.0000
  In  In4       1.0  0.008583454647913194  0.0021061288119752102  0.9989925717750945  1.0000
  In  In5       1.0  0.008583454647913194  0.005439462190488748  0.9993006648984334  1.0000
  In  In6       1.0  0.008380535727817169  0.008817039898013976  0.9996019618948179  1.0000
  In  In7       1.0  0.008583454647913194  0.00040157540487027017  0.9988350236319377  1.0000
  In  In8       1.0  0.008583454647913194  0.003734908753129207  0.9991431167567937  1.0000
  In  In9       1.0  0.008680151805368217  0.006938747597135995  0.9994650176202124  1.0000
  In  In10      1.0  0.005117124204825374  0.00018977579903670433  0.9996068539429039  1.0000
  In  In11      1.0  0.005100837666246821  0.0034263132715978625  0.9989743450501405  1.0000
  In  In12      1.0  0.005100837666246821  0.006759646650111401  0.9992824381734793  1.0000
  In  In13      1.0  0.0016182210750824925  0.008079831109734053  0.9992642114485253  1.0000
  In  In14      1.0  0.001462463216998408  0.001382219341355954  0.9995856753687647  1.0000
  In  In15      1.0  0.0016182210750824925  0.004746497731220515  0.9989561183251864  1.0000
  In  In16      1.0  0.0017303564705093192  0.009907019758382669  0.9994329759214771  1.0000
  In  In17      1.0  0.0016182210750824925  0.003117717790066518  0.9988055738801744  1.0000
  In  In18      1.0  0.0016182210750824925  0.006451051168580056  0.9991136670035132  1.0000
  In  In19      1.0  0.00010083785401322054  0.00842631309733136  0.9989743452950217  1.0000
  In  In20      1.0  0.00010083785401322054  0.0017596465823410934  0.9992824384774226  1.0000
  In  In21      1.0  0.009492042522211174  0.0048967202982029825  0.9996047549554301  1.0000
  In  In22      1.0  0.006618220830367879  0.008772795569002286  0.9991466183011642  1.0000
  In  In23      1.0  0.006618326526254434  0.0020828165524707305  0.9994759612239642  1.0000
  In  In24      1.0  0.006618220830367879  0.005439462190488748  0.9988385251778253  1.0000
  In  In25      1.0  0.006618220830367879  0.00040157540487027017  0.9992971633525457  1.0000
  In  In26      1.0  0.00595902578474791  0.003280152808410817  0.9996707385050615  1.0000
  In  In27      1.0  0.006618220830367879  0.007068242131642745  0.9989890701595245  1.0000
  In  In28      1.0  0.005100837666246821  0.0017596465823410934  0.9988202987568146  1.0000
  In  In29      1.0  0.005100837666246821  0.0050929797188178205  0.9991283918922909  1.0000
  In  In30      1.0  0.004596839587608515  0.0085501391297295  0.9994598367735823  1.0000
  In  In31      1.0  0.00358345476246046  0.0014131642316885715  0.9991101649285242  1.0000
  In  In32      1.0  0.0035567298439131466  0.00469767890648497  0.9994268598204019  1.0000
  In  In33      1.0  0.00358345476246046  0.008079831109734053  0.9988020717279172  1.0000
  In  In34      1.0  0.00010083785401322054  9.297990064797476e-05  0.9991283916470303  1.0000
  In  In35      1.0  0.009899162250446077  0.0034180540074665996  0.9994715158081661  1.0000
  In  In36      1.0  0.00010083785401322054  0.006759646650111401  0.9988202984528713  1.0000
  Ir  Ir1       1.0  0.0016515435256618867  0.009576077986258692  0.998761804366149  1.0000
  Ir  Ir2       1.0  0.0016515436558292348  0.0029094112292316152  0.9990698975606873  1.0000
  Ir  Ir3       1.0  0.0016515435256618867  0.006242744607745153  0.9993779906840262  1.0000
  Ir  Ir4       1.0  0.003550132181713718  0.009576077986258692  0.9992239440867571  1.0000
  Ir  Ir5       1.0  0.003418736574643864  0.0028958288495207346  0.9995139053649844  1.0000
  Ir  Ir6       1.0  0.003550132181713718  0.006242744607745153  0.9989158509634182  1.0000
  Ir  Ir7       1.0  0.0066515436714493165  0.0006098818144321663  0.9990328396796186  1.0000
  Ir  Ir8       1.0  0.0066515436714493165  0.00394321531396411  0.9993409327968888  1.0000
  Ir  Ir9       1.0  0.006536025877485376  0.007371785336785741  0.9996165554161701  1.0000
  Ir  Ir10      1.0  0.008550132327501148  0.007276548692477648  0.9991868861996196  1.0000
  Ir  Ir11      1.0  0.008585137451387807  0.0006235954991128984  0.9994909003732857  1.0000
  Ir  Ir12      1.0  0.008550132327501148  0.00394321531396411  0.9988787925395936  1.0000
