data_image0
_chemical_formula_structural       COSi4Ag4Pt20
_chemical_formula_sum              "C1 O1 Si4 Ag4 Pt20"
_cell_length_a       5.642419815063477
_cell_length_b       10.72174255468543
_cell_length_c       106.46781921386719
_cell_angle_alpha    78.5257637667404
_cell_angle_beta     90.0
_cell_angle_gamma    58.24692316399375

_space_group_name_H-M_alt    "P 1"
_space_group_IT_number       1

loop_
  _space_group_symop_operation_xyz
  'x, y, z'

loop_
  _atom_site_type_symbol
  _atom_site_label
  _atom_site_symmetry_multiplicity
  _atom_site_fract_x
  _atom_site_fract_y
  _atom_site_fract_z
  _atom_site_occupancy
  C   C1        1.0  0.005532991105026223  0.009493410773886771  0.9999679890927106  1.0000
  O   O1        1.0  0.005532991105026223  0.009493410773886771  8.069943473970427e-05  1.0000
  Si  Si1       1.0  0.005016817451241525  9.770849987274617e-06  0.9993536743275734  1.0000
  Si  Si2       1.0  0.002473175218002134  0.007553909786855463  0.9995674040972996  1.0000
  Si  Si3       1.0  0.00751681749328903  0.002509771019213112  0.9991395967309726  1.0000
  Si  Si4       1.0  0.009983181398378855  0.005044341549709087  0.9997743269054294  1.0000
  Ag  Ag1       1.0  1.6817206366418798e-05  0.005009771094862381  0.9993536742218971  1.0000
  Ag  Ag2       1.0  0.007507496043733761  0.0025205350695618224  0.9995652489678616  1.0000
  Ag  Ag3       1.0  0.0025168175521273505  0.0075097709603747925  0.9991395966313806  1.0000
  Ag  Ag4       1.0  0.0050758577058190755  0.009950544173093918  0.9998006628749598  1.0000
  Pt  Pt1       1.0  0.009784708442347695  0.007741879726835267  0.9993735502963615  1.0000
  Pt  Pt2       1.0  0.0072108539248553795  0.005289141321494409  0.9995840775852921  1.0000
  Pt  Pt3       1.0  0.0022847090783534797  0.00024187944735324662  0.999159472350454  1.0000
  Pt  Pt4       1.0  0.004784384507070368  0.0027758181488552742  0.9997893322822314  1.0000
  Pt  Pt5       1.0  0.007686541121863754  0.009833859379293517  0.9995446657643434  1.0000
  Pt  Pt6       1.0  0.005197054245968637  0.007322087647067557  0.9997600940939149  1.0000
  Pt  Pt7       1.0  0.0002489262729540877  0.0022776622527526384  0.9993337987114795  1.0000
  Pt  Pt8       1.0  0.0027489260784635647  0.004777662328401907  0.9991197208368349  1.0000
  Pt  Pt9       1.0  0.004784708231074352  0.007741879726835267  0.9993735502963615  1.0000
  Pt  Pt10      1.0  0.002264180385527163  0.005289470816085749  0.9995840541894816  1.0000
  Pt  Pt11      1.0  0.007284708959512224  0.00024187944735324662  0.999159472350454  1.0000
  Pt  Pt12      1.0  0.009719394642772725  0.00277530688588287  0.9997893425242533  1.0000
  Pt  Pt13      1.0  0.0026985959519343593  0.00983393670965679  0.9995446894078743  1.0000
  Pt  Pt14      1.0  0.00021057534268694068  0.007322106979658376  0.999760113860768  1.0000
  Pt  Pt15      1.0  0.005248926154112833  0.0022776622527526384  0.9993337987114795  1.0000
  Pt  Pt16      1.0  0.007748925629507711  0.004777662328401907  0.9991197208368349  1.0000
  Pt  Pt17      1.0  0.007516817103171497  0.0075097709603747925  0.9991395966313806  1.0000
  Pt  Pt18      1.0  0.005016817417639762  0.005009771094862381  0.9993536742218971  1.0000
  Pt  Pt19      1.0  3.694039511694763e-05  0.009990229779306943  0.9997804174381855  1.0000
  Pt  Pt20      1.0  0.002551511675289149  0.0024763993951340026  0.9995685017995483  1.0000
