data_image0
_chemical_formula_structural       COZn8Cu4Au4
_chemical_formula_sum              "C1 O1 Zn8 Cu4 Au4"
_cell_length_a       4.552651882171631
_cell_length_b       7.360001272351869
_cell_length_c       99.44000244140625
_cell_angle_alpha    80.37340080977303
_cell_angle_beta     90.0
_cell_angle_gamma    90.0

_space_group_name_H-M_alt    "P 1"
_space_group_IT_number       1

loop_
  _space_group_symop_operation_xyz
  'x, y, z'

loop_
  _atom_site_type_symbol
  _atom_site_label
  _atom_site_symmetry_multiplicity
  _atom_site_fract_x
  _atom_site_fract_y
  _atom_site_fract_z
  _atom_site_occupancy
  C   C1        1.0  0.0024999979870602078  0.00651472351952428  3.751382307149825e-05  1.0000
  O   O1        1.0  0.0024999979870602078  0.00651472351952428  0.00015818924965468965  1.0000
  Zn  Zn1       1.0  0.0049999996563273525  0.005367287049521896  0.9996799444782525  1.0000
  Zn  Zn2       1.0  0.005000000474595561  0.00037074876710738945  0.9993214210612343  1.0000
  Zn  Zn3       1.0  0.0049999976106568315  0.007824896651548958  0.9998781780954619  1.0000
  Zn  Zn4       1.0  0.005000000474595561  0.002866933205644246  0.9995061746791207  1.0000
  Zn  Zn5       1.0  3.00000005070948e-10  0.0046825526337993546  0.9993723576080827  1.0000
  Zn  Zn6       1.0  0.009999998494386497  0.009629250923579547  0.9997644225161298  1.0000
  Zn  Zn7       1.0  0.010000000130922913  0.002306873773508245  0.9999351607384583  1.0000
  Zn  Zn8       1.0  3.00000005070948e-10  0.007178737296941133  0.9995571112231891  1.0000
  Cu  Cu1       1.0  0.009999999312654705  0.006002869694177692  0.9998435124344783  1.0000
  Cu  Cu2       1.0  3.00000005070948e-10  0.0009548655361845912  0.9994629416100276  1.0000
  Cu  Cu3       1.0  0.005000000474595561  0.006594620239086175  0.9994155906779701  1.0000
  Cu  Cu4       1.0  0.004999998838059144  0.0014112599783521723  0.9997975789621745  1.0000
  Au  Au1       1.0  0.005000000065461457  0.004181673133289652  0.999948242669282  1.0000
  Au  Au2       1.0  0.005000000474595561  0.009135115988014742  0.9995976296039208  1.0000
  Au  Au3       1.0  3.00000005070948e-10  0.008414370344276232  0.9992809027970632  1.0000
  Au  Au4       1.0  3.00000005070948e-10  0.0034143703545438855  0.9996509751041297  1.0000
