data_image0
_chemical_formula_structural       COMn6Au24
_chemical_formula_sum              "C1 O1 Mn6 Au24"
_cell_length_a       10.300351031483887
_cell_length_b       6.544747352600098
_cell_length_c       100.63320922851562
_cell_angle_alpha    90.0
_cell_angle_beta     81.83600668529007
_cell_angle_gamma    90.0

_space_group_name_H-M_alt    "P 1"
_space_group_IT_number       1

loop_
  _space_group_symop_operation_xyz
  'x, y, z'

loop_
  _atom_site_type_symbol
  _atom_site_label
  _atom_site_symmetry_multiplicity
  _atom_site_fract_x
  _atom_site_fract_y
  _atom_site_fract_z
  _atom_site_occupancy
  C   C1        1.0  0.008801941487299465  0.007514259219996897  4.243325399845036e-05  1.0000
  O   O1        1.0  0.008801941487299465  0.007514259219996897  0.00016167783345731512  1.0000
  Mn  Mn1       1.0  0.0003422179583386609  0.0005497014632343995  0.9997018943794804  1.0000
  Mn  Mn2       1.0  0.003675473001595792  0.00048318994197225136  0.9994429432551879  1.0000
  Mn  Mn3       1.0  0.007008806325185949  0.00048318994197225136  0.9991892727924342  1.0000
  Mn  Mn4       1.0  0.0003421394724855075  0.005483190112733173  0.9993161079792022  1.0000
  Mn  Mn5       1.0  0.0036525523008643615  0.005514391548327072  0.9998001048254637  1.0000
  Mn  Mn6       1.0  0.007008806325185949  0.005483190112733173  0.9995697782380129  1.0000
  Au  Au1       1.0  0.009657861023503066  0.0014960333034797707  0.9992119593159053  1.0000
  Au  Au2       1.0  0.002921447238992697  0.0015695996699168619  0.9997342851054153  1.0000
  Au  Au3       1.0  0.00632452769991291  0.0014960333034797707  0.999465629778659  1.0000
  Au  Au4       1.0  0.008337858405472591  0.008430353427750007  0.9993915575942921  1.0000
  Au  Au5       1.0  0.001584659015736056  0.008327036239747971  0.9998980106958115  1.0000
  Au  Au6       1.0  0.005001188896487527  0.008518112018982423  0.9996435094340285  1.0000
  Au  Au7       1.0  0.009013087568489463  0.0025360267977163394  0.999494329011276  1.0000
  Au  Au8       1.0  0.002346420555940034  0.0025360267977163394  0.9992406584586407  1.0000
  Au  Au9       1.0  0.005570454439324782  0.00247293319860069  0.9997656977274331  1.0000
  Au  Au10      1.0  0.0010264183946209527  0.00947034663738504  0.999420256730389  1.0000
  Au  Au11      1.0  0.004171644260634615  0.008873851416505105  0.9999291970860004  1.0000
  Au  Au12      1.0  0.007693649811111767  0.009516810114948057  0.9996823403434889  1.0000
  Au  Au13      1.0  0.009657861023503066  0.006496033474240693  0.999592465057632  1.0000
  Au  Au14      1.0  0.0029911940109536373  0.006496033474240693  0.9993387945049967  1.0000
  Au  Au15      1.0  0.006307673953346678  0.006328100353506984  0.999838862479658  1.0000
  Au  Au16      1.0  0.001671191758292277  0.0034303532569890855  0.9995183927780728  1.0000
  Au  Au17      1.0  0.005004525081882434  0.0034303532569890855  0.999264722315319  1.0000
  Au  Au18      1.0  0.008342869077524474  0.0033436138238570586  0.9997819472965327  1.0000
  Au  Au19      1.0  0.009043177176638863  0.007514259219996897  0.9998685558763596  1.0000
  Au  Au20      1.0  0.002346420555940034  0.0075360266838757255  0.9996211644965154  1.0000
  Au  Au21      1.0  0.005679754244899307  0.0075360266838757255  0.9993674937323029  1.0000
  Au  Au22      1.0  0.007693085681197219  0.004470346751225654  0.9992934215373146  1.0000
  Au  Au23      1.0  0.0009553104400196965  0.004246020974541232  0.9998211724088972  1.0000
  Au  Au24      1.0  0.004359751992237947  0.004470346751225654  0.9995470920053791  1.0000
