data_image0
_chemical_formula_structural       HPt4W2Pt4W2
_chemical_formula_sum              "H1 Pt8 W4"
_cell_length_a       5.6199568445872625
_cell_length_b       4.845183764595786
_cell_length_c       98.75634002685547
_cell_angle_alpha    88.62812415163249
_cell_angle_beta     87.19950383517235
_cell_angle_gamma    73.14345366593939

_space_group_name_H-M_alt    "P 1"
_space_group_IT_number       1

loop_
  _space_group_symop_operation_xyz
  'x, y, z'

loop_
  _atom_site_type_symbol
  _atom_site_label
  _atom_site_symmetry_multiplicity
  _atom_site_fract_x
  _atom_site_fract_y
  _atom_site_fract_z
  _atom_site_occupancy
  H   H1        1.0  0.0011511014773158928  0.00863964042685131  0.00011118946430142186  1.0000
  Pt  Pt1       1.0  0.0007065324514851187  0.002274963368643752  0.9996314175150945  1.0000
  Pt  Pt2       1.0  0.0036553625970236364  0.0013221655754977763  0.9993860877864246  1.0000
  Pt  Pt3       1.0  0.001292320597632831  0.008677834444587846  0.9999862137067679  1.0000
  Pt  Pt4       1.0  0.004293467659922094  0.007515317939026089  0.9997485030079094  1.0000
  W   W1        1.0  0.002180947549007476  0.00679856408040111  0.9995087527409292  1.0000
  W   W2        1.0  0.002843403799055814  0.0029172023770194246  0.9998642579131601  1.0000
  Pt  Pt5       1.0  0.005706532172747612  0.002274963368643752  0.9996314174404255  1.0000
  Pt  Pt6       1.0  0.008655362650116495  0.0013221655754977763  0.9993860877108329  1.0000
  Pt  Pt7       1.0  0.00629232065072569  0.008677834444587846  0.9999862139329525  1.0000
  Pt  Pt8       1.0  0.00929346704935422  0.007515317939026089  0.999748502934163  1.0000
  W   W3        1.0  0.007180947602100335  0.00679856408040111  0.9995087526653376  1.0000
  W   W4        1.0  0.007843403520318306  0.0029172023770194246  0.9998642581402674  1.0000
