data_image0
_chemical_formula_structural       COIn8Pt4
_chemical_formula_sum              "C1 O1 In8 Pt4"
_cell_length_a       4.616677761077881
_cell_length_b       4.616677761077881
_cell_length_c       109.17381286621094
_cell_angle_alpha    90.0
_cell_angle_beta     90.0
_cell_angle_gamma    90.0

_space_group_name_H-M_alt    "P 1"
_space_group_IT_number       1

loop_
  _space_group_symop_operation_xyz
  'x, y, z'

loop_
  _atom_site_type_symbol
  _atom_site_label
  _atom_site_symmetry_multiplicity
  _atom_site_fract_x
  _atom_site_fract_y
  _atom_site_fract_z
  _atom_site_occupancy
  C   C1        1.0  0.007499999193079853  2.1000000330224585e-09  0.000158650808930769  1.0000
  O   O1        1.0  0.007499999193079853  2.1000000330224585e-09  0.00026856695456136884  1.0000
  In  In1       1.0  0.007500000000000001  0.005000000403460074  0.9989742634745797  1.0000
  In  In2       1.0  0.0025  3.0000000128205204e-10  0.9989742634745797  1.0000
  In  In3       1.0  0.0025  3.0000000128205204e-10  0.999273280585347  1.0000
  In  In4       1.0  0.007500000000000001  0.005000000403460074  0.999273280585347  1.0000
  In  In5       1.0  0.007500000000000001  0.005000000403460074  0.999572297969095  1.0000
  In  In6       1.0  0.0025  3.0000000128205204e-10  0.999572297969095  1.0000
  In  In7       1.0  0.002500002017300368  0.01  0.9998724094587002  1.0000
  In  In8       1.0  0.007499999193079853  0.004999999596539927  0.9998724094587002  1.0000
  Pt  Pt1       1.0  0.007500000000000001  3.0000000128205204e-10  0.9994227892772211  1.0000
  Pt  Pt2       1.0  0.0025  0.005000000403460074  0.9991237721664536  1.0000
  Pt  Pt3       1.0  0.007499999193079853  2.1000000330224585e-09  0.0  1.0000
  Pt  Pt4       1.0  0.0025  0.005000000403460074  0.9997218066609689  1.0000
