data_image0
_chemical_formula_structural       COW40
_chemical_formula_sum              "C1 O1 W40"
_cell_length_a       8.998138427734375
_cell_length_b       7.113652875940699
_cell_length_c       103.06127166748047
_cell_angle_alpha    75.03678256244926
_cell_angle_beta     90.0
_cell_angle_gamma    108.43494924534815

_space_group_name_H-M_alt    "P 1"
_space_group_IT_number       1

loop_
  _space_group_symop_operation_xyz
  'x, y, z'

loop_
  _atom_site_type_symbol
  _atom_site_label
  _atom_site_symmetry_multiplicity
  _atom_site_fract_x
  _atom_site_fract_y
  _atom_site_fract_z
  _atom_site_occupancy
  C   C1        1.0  0.009290443299126922  0.001161774070890006  7.69197757139295e-05  1.0000
  O   O1        1.0  0.009290443299126922  0.001161774070890006  0.0001933556019417705  1.0000
  W   W1        1.0  0.0015000000197226374  0.005000000137679512  0.9998217824059442  1.0000
  W   W2        1.0  0.000499999985015927  0.0009999999988526708  0.9997148512554516  1.0000
  W   W3        1.0  0.0025000000185753084  0.009000000133090196  0.9993940590896447  1.0000
  W   W4        1.0  0.004499999826343911  0.006999999848552537  0.9996079204637354  1.0000
  W   W5        1.0  0.00349999982749124  0.002999999853141854  0.9995009898890287  1.0000
  W   W6        1.0  0.0015000000197226374  0.005000000137679512  0.9995544548820993  1.0000
  W   W7        1.0  0.000499999985015927  0.0009999999988526708  0.9994475243099485  1.0000
  W   W8        1.0  0.0025000000185753084  0.009000000133090196  0.9996613860351478  1.0000
  W   W9        1.0  0.004499999826343911  0.006999999848552537  0.9998752474092385  1.0000
  W   W10       1.0  0.00349999982749124  0.002999999853141854  0.9997683168345318  1.0000
  W   W11       1.0  0.0015000000197226374  0.005000000137679512  0.9992871282257672  1.0000
  W   W12       1.0  0.000499999985015927  0.0009999999988526708  0.9991801973644454  1.0000
  W   W13       1.0  0.0025000000185753084  0.009000000133090196  0.9988594049094677  1.0000
  W   W14       1.0  0.004499999826343911  0.006999999848552537  0.9990732665727293  1.0000
  W   W15       1.0  0.00349999982749124  0.002999999853141854  0.9989663357088516  1.0000
  W   W16       1.0  0.0015000000197226374  0.005000000137679512  0.999019801280264  1.0000
  W   W17       1.0  0.000499999985015927  0.0009999999988526708  0.9989128704189424  1.0000
  W   W18       1.0  0.0025000000185753084  0.009000000133090196  0.9991267318549708  1.0000
  W   W19       1.0  0.004499999826343911  0.006999999848552537  0.9993405935182323  1.0000
  W   W20       1.0  0.00349999982749124  0.002999999853141854  0.9992336626543548  1.0000
  W   W21       1.0  0.006499999699902402  0.005000000137679512  0.9998217824059442  1.0000
  W   W22       1.0  0.00549999966519569  0.0009999999988526708  0.9997148512554516  1.0000
  W   W23       1.0  0.007499999698755073  0.009000000133090196  0.9993940590896447  1.0000
  W   W24       1.0  0.009499999842904183  0.006999999848552537  0.9996079204637354  1.0000
  W   W25       1.0  0.00849999984405151  0.002999999853141854  0.9995009898890287  1.0000
  W   W26       1.0  0.006499999699902402  0.005000000137679512  0.9995544548820993  1.0000
  W   W27       1.0  0.00549999966519569  0.0009999999988526708  0.9994475243099485  1.0000
  W   W28       1.0  0.007499999698755073  0.009000000133090196  0.9996613860351478  1.0000
  W   W29       1.0  0.009499999842904183  0.006999999848552537  0.9998752474092385  1.0000
  W   W30       1.0  0.00849999984405151  0.002999999853141854  0.9997683168345318  1.0000
  W   W31       1.0  0.006499999699902402  0.005000000137679512  0.9992871282257672  1.0000
  W   W32       1.0  0.00549999966519569  0.0009999999988526708  0.9991801973644454  1.0000
  W   W33       1.0  0.007499999698755073  0.009000000133090196  0.9988594049094677  1.0000
  W   W34       1.0  0.009499999842904183  0.006999999848552537  0.9990732665727293  1.0000
  W   W35       1.0  0.00849999984405151  0.002999999853141854  0.9989663357088516  1.0000
  W   W36       1.0  0.006499999699902402  0.005000000137679512  0.999019801280264  1.0000
  W   W37       1.0  0.00549999966519569  0.0009999999988526708  0.9989128704189424  1.0000
  W   W38       1.0  0.007499999698755073  0.009000000133090196  0.9991267318549708  1.0000
  W   W39       1.0  0.009499999842904183  0.006999999848552537  0.9993405935182323  1.0000
  W   W40       1.0  0.00849999984405151  0.002999999853141854  0.9992336626543548  1.0000
