data_image0
_chemical_formula_structural       HFe12Ga6V6
_chemical_formula_sum              "H1 Fe12 Ga6 V6"
_cell_length_a       7.041250714089449
_cell_length_b       5.749157428741455
_cell_length_c       100.96015930175781
_cell_angle_alpha    90.0
_cell_angle_beta     85.65224689340394
_cell_angle_gamma    114.09484386793419

_space_group_name_H-M_alt    "P 1"
_space_group_IT_number       1

loop_
  _space_group_symop_operation_xyz
  'x, y, z'

loop_
  _atom_site_type_symbol
  _atom_site_label
  _atom_site_symmetry_multiplicity
  _atom_site_fract_x
  _atom_site_fract_y
  _atom_site_fract_z
  _atom_site_occupancy
  H   H1        1.0  0.0037337797979954757  0.007075223124335817  0.00010169951594376471  1.0000
  Fe  Fe1       1.0  0.003958333286807551  0.009687500037214452  0.9999790715285013  1.0000
  Fe  Fe2       1.0  0.0006250000232628911  0.008020832757470599  0.9994679758048927  1.0000
  Fe  Fe3       1.0  0.002291666655035221  0.0038541667083688558  0.9997235235191025  1.0000
  Fe  Fe4       1.0  0.003958333286807551  0.00468749986226214  0.9999790715285013  1.0000
  Fe  Fe5       1.0  0.0006250000232628911  0.00302083323048981  0.9994679758048927  1.0000
  Fe  Fe6       1.0  0.002291666655035221  0.008854166721328285  0.9997235235191025  1.0000
  Fe  Fe7       1.0  0.004791666748086785  0.0051041667548946375  0.9993402020715518  1.0000
  Fe  Fe8       1.0  0.006458333379859115  0.0009375000578213721  0.9995957497857617  1.0000
  Fe  Fe9       1.0  0.008125000302417583  0.006770833370067156  0.9998512972032452  1.0000
  Fe  Fe10      1.0  0.004791666748086785  0.0001041669039280882  0.9993402020715518  1.0000
  Fe  Fe11      1.0  0.006458333379859115  0.005937499908787922  0.9995957497857617  1.0000
  Fe  Fe12      1.0  0.008125000302417583  0.0017708335191006068  0.9998512972032452  1.0000
  Ga  Ga1       1.0  0.005208333333333333  0.002812500000539976  0.9997874103619425  1.0000
  Ga  Ga2       1.0  0.001875000069788673  0.001145833328269426  0.9992763152287119  1.0000
  Ga  Ga3       1.0  0.003541666701561003  0.006979166576118581  0.9995318629429216  1.0000
  Ga  Ga4       1.0  0.001041666608509439  0.005729166529592799  0.9999151840952833  1.0000
  Ga  Ga5       1.0  0.007708333426384897  0.0040625000470657585  0.9994040889143919  1.0000
  Ga  Ga6       1.0  0.009375000348943365  0.009895833399809761  0.9996596366270644  1.0000
  V   V1        1.0  0.003541666701561003  0.0019791667454011415  0.9995318629429216  1.0000
  V   V2        1.0  0.005208333333333333  0.007812499892004746  0.9997874103619425  1.0000
  V   V3        1.0  0.001875000069788673  0.006145833260232416  0.9992763152287119  1.0000
  V   V4        1.0  0.009375000348943365  0.004895833467846772  0.9996596366270644  1.0000
  V   V5        1.0  0.001041666608509439  0.0007291666988753596  0.9999151840952833  1.0000
  V   V6        1.0  0.007708333426384897  0.00906249993853053  0.9994040889143919  1.0000
