data_image0
_chemical_formula_structural       COCu20Sn16
_chemical_formula_sum              "C1 O1 Cu20 Sn16"
_cell_length_a       9.988122360831918
_cell_length_b       7.3245978355407715
_cell_length_c       110.13529968261719
_cell_angle_alpha    90.0
_cell_angle_beta     118.01966105271661
_cell_angle_gamma    90.0

_space_group_name_H-M_alt    "P 1"
_space_group_IT_number       1

loop_
  _space_group_symop_operation_xyz
  'x, y, z'

loop_
  _atom_site_type_symbol
  _atom_site_label
  _atom_site_symmetry_multiplicity
  _atom_site_fract_x
  _atom_site_fract_y
  _atom_site_fract_z
  _atom_site_occupancy
  C   C1        1.0  0.001506880536396032  0.0074872737096289615  0.00020303020971614643  1.0000
  O   O1        1.0  0.001506880536396032  0.0074872737096289615  0.00031198732295119623  1.0000
  Cu  Cu1       1.0  0.0005444415905064219  0.007735540685719717  0.9995803804612343  1.0000
  Cu  Cu2       1.0  0.004407329228980373  0.0027355405839997213  0.9996816960135723  1.0000
  Cu  Cu3       1.0  0.009407329752873015  0.0022015123871355615  0.9996816962307221  1.0000
  Cu  Cu4       1.0  0.0055444415862814815  0.007201512743155547  0.9995803806558845  1.0000
  Cu  Cu5       1.0  0.0018418449218700992  0.0025281541112455444  0.9994581194283381  1.0000
  Cu  Cu6       1.0  0.003084544461017629  0.007436044468238786  0.9998078427900313  1.0000
  Cu  Cu7       1.0  0.008084594627962948  0.0075011137322319585  0.9998078386278194  1.0000
  Cu  Cu8       1.0  0.006841845234515708  0.002408898859889739  0.999458119636488  1.0000
  Cu  Cu9       1.0  0.0031393786982764514  0.007200710680990144  0.9993429135555476  1.0000
  Cu  Cu10      1.0  0.0019448950268541286  0.002046011249743259  0.9999235578663639  1.0000
  Cu  Cu11      1.0  0.006944835767836523  0.002890778775203367  0.9999235501245964  1.0000
  Cu  Cu12      1.0  0.008139378588427995  0.0077363427478851195  0.9993429134751004  1.0000
  Cu  Cu13      1.0  0.004290088393329564  0.0023969121756067966  0.999239663103273  1.0000
  Cu  Cu14      1.0  0.0005840741744236127  0.0074872737096289615  2.4883689656424825e-05  1.0000
  Cu  Cu15      1.0  0.005584033927638949  0.007449733436648298  2.489515850048229e-05  1.0000
  Cu  Cu16      1.0  0.00929008849472814  0.0025401407955284866  0.9992396630318257  1.0000
  Cu  Cu17      1.0  0.00935431604254176  0.000860807052243227  0.9994569603434349  1.0000
  Cu  Cu18      1.0  0.0055373572057937906  0.005854680495052503  0.9998028730148749  1.0000
  Cu  Cu19      1.0  0.0005374265518572056  0.009082146098232546  0.9998028822687769  1.0000
  Cu  Cu20      1.0  0.0043543159411431834  0.004076246236767042  0.9994569601442849  1.0000
  Sn  Sn1       1.0  0.002819668989149217  0.005963266081768555  0.9995665790482732  1.0000
  Sn  Sn2       1.0  0.0021321017247140617  0.0009632659164735615  0.9996954979632283  1.0000
  Sn  Sn3       1.0  0.0071321020373596705  0.003973787245386714  0.9996954976301835  1.0000
  Sn  Sn4       1.0  0.00781966887930076  0.008973787855706686  0.999566578967826  1.0000
  Sn  Sn5       1.0  0.004329055865964387  0.0004835776220403957  0.9994639791638786  1.0000
  Sn  Sn6       1.0  0.000808515379885843  0.005420596008377171  0.9998265755101263  1.0000
  Sn  Sn7       1.0  0.005807983244385602  0.009516422327099606  0.9998265443749278  1.0000
  Sn  Sn8       1.0  0.009329055967362963  0.004453475349094888  0.9994639790924312  1.0000
  Sn  Sn9       1.0  0.005749232909635104  0.005836857626021309  0.9993362550013739  1.0000
  Sn  Sn10      1.0  0.009462574231869286  0.0010031338608288178  0.9999615755915667  1.0000
  Sn  Sn11      1.0  0.004462528501111653  0.003933856043909186  0.9999615707424659  1.0000
  Sn  Sn12      1.0  0.0007492327026130116  0.009100195294253976  0.9993362547977239  1.0000
  Sn  Sn13      1.0  0.006663349519295041  0.0009443961579625273  0.9992156446692949  1.0000
  Sn  Sn14      1.0  0.008259646594056995  0.006206299055485084  5.942293236460803e-05  1.0000
  Sn  Sn15      1.0  0.0032600102600486803  0.00873078590658882  5.946204360037507e-05  1.0000
  Sn  Sn16      1.0  0.0016633494178964648  0.0039926570674727446  0.9992156447407422  1.0000
