data_image0
_chemical_formula_structural       HFe30Si18
_chemical_formula_sum              "H1 Fe30 Si18"
_cell_length_a       11.519289016723633
_cell_length_b       8.116917929414328
_cell_length_c       37.53232955932617
_cell_angle_alpha    89.59765702736532
_cell_angle_beta     90.0
_cell_angle_gamma    44.79882716860544

_space_group_name_H-M_alt    "P 1"
_space_group_IT_number       1

loop_
  _space_group_symop_operation_xyz
  'x, y, z'

loop_
  _atom_site_type_symbol
  _atom_site_label
  _atom_site_symmetry_multiplicity
  _atom_site_fract_x
  _atom_site_fract_y
  _atom_site_fract_z
  _atom_site_occupancy
  H   H1        1.0  0.006809846224237899  0.007613109360057297  0.0001923961541921639  1.0000
  Fe  Fe1       1.0  0.009310956023200064  0.009205832834114159  0.9985527304367817  1.0000
  Fe  Fe2       1.0  0.002644288677172591  0.0025391662325856927  0.9992736126738648  1.0000
  Fe  Fe3       1.0  0.00622269018354518  0.005864608528789626  0.9999082975874912  1.0000
  Fe  Fe4       1.0  0.007491953651296336  0.007615333829634318  0.999290084807625  1.0000
  Fe  Fe5       1.0  0.0007385022472996314  0.0011622709421662402  0.9999424358623278  1.0000
  Fe  Fe6       1.0  0.004158621192738414  0.004282000040333574  0.9985692025175376  1.0000
  Fe  Fe7       1.0  0.008439538472927008  0.00333441606051662  0.9983642734854966  1.0000
  Fe  Fe8       1.0  0.0017728717411221412  0.006667749524126357  0.9990851557760787  1.0000
  Fe  Fe9       1.0  0.0051444716197778925  0.009922750392288305  0.9997241425997604  1.0000
  Fe  Fe10      1.0  0.0016967047958481227  0.009205832834114159  0.9985527304367817  1.0000
  Fe  Fe11      1.0  0.005030038096612355  0.0025391662325856927  0.9992736126738648  1.0000
  Fe  Fe12      1.0  0.008125856977640821  0.005863970174416133  0.9999083017331002  1.0000
  Fe  Fe13      1.0  0.0050300380982553315  0.00015341680985997476  0.998757659415231  1.0000
  Fe  Fe14      1.0  0.00838296577978011  0.0034476080158132626  0.9994608268702602  1.0000
  Fe  Fe15      1.0  0.001545352523670886  0.007124058257939774  8.040444669913555e-05  1.0000
  Fe  Fe16      1.0  0.005106204878648279  0.007615333829634318  0.999290084807625  1.0000
  Fe  Fe17      1.0  0.008312888004725742  0.0011607617714630895  0.9999424405363523  1.0000
  Fe  Fe18      1.0  0.00177287177329865  0.004282000040333574  0.9985692025175376  1.0000
  Fe  Fe19      1.0  0.008401455138166269  0.006743916925760377  0.9985609666749288  1.0000
  Fe  Fe20      1.0  0.0017347884259588894  7.72497033834293e-05  0.9992818489129547  1.0000
  Fe  Fe21      1.0  0.005278191857102307  0.0031130816632940713  0.9999952723385853  1.0000
  Fe  Fe22      1.0  0.006734788483886071  0.0034105831364596335  0.9989214075957012  1.0000
  Fe  Fe23      1.0  0.000108623102723545  0.006720310841581393  0.999674280052075  1.0000
  Fe  Fe24      1.0  0.00340145487702832  7.72497033834293e-05  0.9982005253050726  1.0000
  Fe  Fe25      1.0  0.0050681215892357  0.006743916925760377  0.9985609666749288  1.0000
  Fe  Fe26      1.0  0.008401455200424172  7.72497033834293e-05  0.9992818489129547  1.0000
  Fe  Fe27      1.0  0.0018217453987981623  0.0031132161736799144  0.9999951828043581  1.0000
  Fe  Fe28      1.0  6.812170942078738e-05  0.0034105831364596335  0.9989214075957012  1.0000
  Fe  Fe29      1.0  0.00338494381101706  0.006719510944468485  0.9996741438972157  1.0000
  Fe  Fe30      1.0  0.0067347881025630356  7.72497033834293e-05  0.9982005253050726  1.0000
  Si  Si1       1.0  0.0029166664516565495  0.0004257946212442877  0.998816565227042  1.0000
  Si  Si2       1.0  0.0061822743890302635  0.003778825022011501  0.9995326799412655  1.0000
  Si  Si3       1.0  0.009583332926979748  0.0070924616705978875  0.9980956825922568  1.0000
  Si  Si4       1.0  0.007219576498524551  0.005774340009321538  0.9988919431726442  1.0000
  Si  Si5       1.0  0.0005175888058759475  0.009178526248714954  0.9995809298982814  1.0000
  Si  Si6       1.0  0.0038862433931749225  0.0024410062200207945  0.9981710608825567  1.0000
  Si  Si7       1.0  0.009931877997508267  0.0063953715295408525  0.9990262503615679  1.0000
  Si  Si8       1.0  0.003423826611265897  0.009421226627371136  0.9998203463434329  1.0000
  Si  Si9       1.0  0.006598544729313135  0.003062038065931116  0.9983053680709858  1.0000
  Si  Si10      1.0  0.006871031933469801  0.0004257946212442877  0.998816565227042  1.0000
  Si  Si11      1.0  0.0002521434152897818  0.0037793392881113716  0.9995326470014952  1.0000
  Si  Si12      1.0  0.0035376984087930018  0.0070924616705978875  0.9980956825922568  1.0000
  Si  Si13      1.0  0.006249999907776718  0.007713493190817202  0.9982299901782026  1.0000
  Si  Si14      1.0  0.009583333167829574  0.0010468266707114886  0.998950872415162  1.0000
  Si  Si15      1.0  0.0030910941912087814  0.004030803360380799  0.9997217823860713  1.0000
  Si  Si16      1.0  0.0038862434793215197  0.0063953715295408525  0.9990262503615679  1.0000
  Si  Si17      1.0  0.00736681918114892  0.009421975065304955  0.9998199207902859  1.0000
  Si  Si18      1.0  0.0005529102111263878  0.003062038065931116  0.9983053680709858  1.0000
