data_image0
_chemical_formula_structural       COPt16Sb32
_chemical_formula_sum              "C1 O1 Pt16 Sb32"
_cell_length_a       9.31621265411377
_cell_length_b       11.409984588623047
_cell_length_c       102.27230834960938
_cell_angle_alpha    90.0
_cell_angle_beta     90.0
_cell_angle_gamma    90.0

_space_group_name_H-M_alt    "P 1"
_space_group_IT_number       1

loop_
  _space_group_symop_operation_xyz
  'x, y, z'

loop_
  _atom_site_type_symbol
  _atom_site_label
  _atom_site_symmetry_multiplicity
  _atom_site_fract_x
  _atom_site_fract_y
  _atom_site_fract_z
  _atom_site_occupancy
  C   C1        1.0  0.002648360426318824  0.003482637232331425  8.700671337249672e-05  1.0000
  O   O1        1.0  0.002648360426318824  0.003482637232331425  0.00020434076510499486  1.0000
  Pt  Pt1       1.0  6.621410152524394e-05  0.0036130010202908066  0.9991567482315974  1.0000
  Pt  Pt2       1.0  0.005066214379935953  0.0002796676295489637  0.9994197088154967  1.0000
  Pt  Pt3       1.0  6.621410152524394e-05  0.00694633390088594  0.9996826693993959  1.0000
  Pt  Pt4       1.0  0.005362934816706977  0.003365282267083331  0.9999160430966019  1.0000
  Pt  Pt5       1.0  0.007566214187997511  0.00694633390088594  0.9992882286692479  1.0000
  Pt  Pt6       1.0  0.0025662141720026407  0.0036130010202908066  0.9995511889617454  1.0000
  Pt  Pt7       1.0  0.0076261445673180325  0.0002409463311766209  0.999810916444014  1.0000
  Pt  Pt8       1.0  0.0025662141720026407  0.0002796676295489637  0.999025267793947  1.0000
  Pt  Pt9       1.0  0.0025662141720026407  0.00694633390088594  0.9992882286692479  1.0000
  Pt  Pt10      1.0  0.007566214187997511  0.0036130010202908066  0.9995511889617454  1.0000
  Pt  Pt11      1.0  0.0026060417986136825  0.00013416204447193181  0.9998098341781775  1.0000
  Pt  Pt12      1.0  0.007566214187997511  0.0002796676295489637  0.999025267793947  1.0000
  Pt  Pt13      1.0  0.009933786067920412  0.00359999219757952  0.9999192572571234  1.0000
  Pt  Pt14      1.0  0.005066214379935953  0.0036130010202908066  0.9991567482315974  1.0000
  Pt  Pt15      1.0  6.621410152524394e-05  0.0002796676295489637  0.9994197088154967  1.0000
  Pt  Pt16      1.0  0.005066214379935953  0.00694633390088594  0.9996826693993959  1.0000
  Sb  Sb1       1.0  0.0038133773858076312  0.004862055324197049  0.9993538193990117  1.0000
  Sb  Sb2       1.0  0.008813377401802502  0.001528721953861074  0.9996167799829109  1.0000
  Sb  Sb3       1.0  0.003945768525744882  0.008133037992354882  0.999890464440006  1.0000
  Sb  Sb4       1.0  0.008813377401802502  0.008195388531286077  0.9990908588151125  1.0000
  Sb  Sb5       1.0  0.007566214187997511  0.0031991709891672146  0.9992882286692479  1.0000
  Sb  Sb6       1.0  0.0025662141720026407  0.009865837729839164  0.9995511889617454  1.0000
  Sb  Sb7       1.0  0.007530376081880222  0.006756192998867625  0.9998119112893468  1.0000
  Sb  Sb8       1.0  0.0025662141720026407  0.006532504196256243  0.999025267793947  1.0000
  Sb  Sb9       1.0  0.008819051581997587  0.008195388531286077  0.9994852998366621  1.0000
  Sb  Sb10      1.0  0.003800761831827734  0.004846864869286263  0.9997620075861788  1.0000
  Sb  Sb11      1.0  0.0077995689472058725  0.002040745350089634  0.9999957332966133  1.0000
  Sb  Sb12      1.0  0.0038190511661309622  0.001528721953861074  0.9992223392527629  1.0000
  Sb  Sb13      1.0  6.621410152524394e-05  0.004862055324197049  0.9995514873570649  1.0000
  Sb  Sb14      1.0  0.005068124967178526  0.0013023661042533348  0.9998118722415218  1.0000
  Sb  Sb15      1.0  6.621410152524394e-05  0.001528721953861074  0.9990255661892665  1.0000
  Sb  Sb16      1.0  0.005066214379935953  0.008195388531286077  0.9992885267731657  1.0000
  Sb  Sb17      1.0  6.621410152524394e-05  0.005697279923473592  0.9992879302739284  1.0000
  Sb  Sb18      1.0  0.005066214379935953  0.0023639465531376178  0.9995508905664259  1.0000
  Sb  Sb19      1.0  0.00012906610633138893  0.008973085232939236  0.9998342507248769  1.0000
  Sb  Sb20      1.0  0.005066214379935953  0.009030612804068727  0.9990249693986275  1.0000
  Sb  Sb21      1.0  0.0013133772778422576  0.0023639465531376178  0.9993541177943311  1.0000
  Sb  Sb22      1.0  0.006313377593740944  0.009030612804068727  0.9996170783782304  1.0000
  Sb  Sb23      1.0  0.0012414965312053006  0.005692282607932508  0.9998903915895861  1.0000
  Sb  Sb24      1.0  0.006313377593740944  0.005697279923473592  0.999091157210432  1.0000
  Sb  Sb25      1.0  0.0025662141720026407  0.007360163605515639  0.9995511889617454  1.0000
  Sb  Sb26      1.0  0.00760441153746582  0.004190983692460597  0.9998041127976083  1.0000
  Sb  Sb27      1.0  0.0025662141720026407  0.004026830724920505  0.999025267793947  1.0000
  Sb  Sb28      1.0  0.007566214187997511  0.0006934974362080036  0.9992882286692479  1.0000
  Sb  Sb29      1.0  0.006319051374064274  0.005697279923473592  0.9994855982319816  1.0000
  Sb  Sb30      1.0  0.0013968819964761126  0.0022999353030147517  0.999752759662488  1.0000
  Sb  Sb31      1.0  0.0069200190336395915  0.008658888404993015  0.0  1.0000
  Sb  Sb32      1.0  0.0013190510581655886  0.009030612804068727  0.9992226376480824  1.0000
