data_image0
_chemical_formula_structural       HAl12Ni8Al12Ni8
_chemical_formula_sum              "H1 Al24 Ni16"
_cell_length_a       7.042374610900879
_cell_length_b       6.41209108091541
_cell_length_c       31.52745246887207
_cell_angle_alpha    101.29324481906808
_cell_angle_beta     90.0
_cell_angle_gamma    90.0

_space_group_name_H-M_alt    "P 1"
_space_group_IT_number       1

loop_
  _space_group_symop_operation_xyz
  'x, y, z'

loop_
  _atom_site_type_symbol
  _atom_site_label
  _atom_site_symmetry_multiplicity
  _atom_site_fract_x
  _atom_site_fract_y
  _atom_site_fract_z
  _atom_site_occupancy
  H   H1        1.0  0.004227492646302068  0.0004210053486140799  0.00041457172862700565  1.0000
  Al  Al1       1.0  0.009996030306528639  0.0054457291044436  0.9993970435072442  1.0000
  Al  Al2       1.0  3.969599917979867e-06  0.00034806795636180765  0.9984146831727685  1.0000
  Al  Al3       1.0  0.005003969376082086  0.0028480679356260516  0.9989231363153142  1.0000
  Al  Al4       1.0  0.0049581589949305735  0.007869497853643081  0.9999586083331133  1.0000
  Al  Al5       1.0  0.0034968265621646254  0.001893658702717642  6.726710817471217e-05  1.0000
  Al  Al6       1.0  0.003337302744680894  0.007111489259153289  0.9990729425368312  1.0000
  Al  Al7       1.0  0.00837654517795128  0.009651932182863983  0.9995774108562372  1.0000
  Al  Al8       1.0  0.00833730263888447  0.00461148905772023  0.9985644898580778  1.0000
  Al  Al9       1.0  0.0012347156962285012  0.005576225733904522  0.00022209129929940581  1.0000
  Al  Al10      1.0  0.0016706362455252343  0.0010846469616444157  0.9992817827784497  1.0000
  Al  Al11      1.0  0.006802065848710773  0.003710811056322162  0.9998166128386046  1.0000
  Al  Al12      1.0  0.006670636007483278  0.008584646825380876  0.9987733299699524  1.0000
  Ni  Ni1       1.0  0.0033605782227453173  0.004603294286948965  0.9995879923614972  1.0000
  Ni  Ni2       1.0  0.003337302744680894  0.009613992266335566  0.9985639804926156  1.0000
  Ni  Ni3       1.0  0.00833730263888447  0.0021139921063740206  0.9990724337619555  1.0000
  Ni  Ni4       1.0  0.008360338223554448  0.0071845537689954695  5.7403733065335986e-05  1.0000
  Ni  Ni5       1.0  0.0016706362455252343  0.0035821439129906257  0.9987738388745718  1.0000
  Ni  Ni6       1.0  0.0016592262332985532  0.008573403306027415  0.9998002615249474  1.0000
  Ni  Ni7       1.0  0.006744100516252701  0.0009691665742286412  0.0002444820777042825  1.0000
  Ni  Ni8       1.0  0.006670636007483278  0.006082143818198598  0.999282292014168  1.0000
  Al  Al13      1.0  3.969599917979867e-06  0.0053480678408340246  0.9973977772217255  1.0000
  Al  Al14      1.0  3.969599917979867e-06  0.00034806795636180765  0.9963808714122245  1.0000
  Al  Al15      1.0  0.005003969376082086  0.0028480679356260516  0.9968893243184498  1.0000
  Al  Al16      1.0  0.005003969376082086  0.007848068338492168  0.9979062303849179  1.0000
  Al  Al17      1.0  0.003337302744680894  0.002111489004399715  0.9980560367125826  1.0000
  Al  Al18      1.0  0.003337302744680894  0.007111489259153289  0.9970391305399668  1.0000
  Al  Al19      1.0  0.00833730263888447  0.009611489164361262  0.997547583679563  1.0000
  Al  Al20      1.0  0.00833730263888447  0.00461148905772023  0.996530677624893  1.0000
  Al  Al21      1.0  0.0016706362455252343  0.006084646920172904  0.9982648768303563  1.0000
  Al  Al22      1.0  0.0016706362455252343  0.0010846469616444157  0.9972479710179056  1.0000
  Al  Al23      1.0  0.006670636007483278  0.003584647014964931  0.9977564241634009  1.0000
  Al  Al24      1.0  0.006670636007483278  0.008584646825380876  0.996739517973088  1.0000
  Ni  Ni9       1.0  0.003337302744680894  0.004613992159694536  0.997547074674266  1.0000
  Ni  Ni10      1.0  0.003337302744680894  0.009613992266335566  0.9965301684957512  1.0000
  Ni  Ni11      1.0  0.00833730263888447  0.0021139921063740206  0.9970386215287708  1.0000
  Ni  Ni12      1.0  0.00833730263888447  0.007113992361127594  0.9980555278256603  1.0000
  Ni  Ni13      1.0  0.0016706362455252343  0.0035821439129906257  0.9967400271140279  1.0000
  Ni  Ni14      1.0  0.0016706362455252343  0.008582143723406571  0.9977569329205793  1.0000
  Ni  Ni15      1.0  0.006670636007483278  0.00108214385967011  0.9982653862017175  1.0000
  Ni  Ni16      1.0  0.006670636007483278  0.006082143818198598  0.9972484800173036  1.0000
