data_image0
_chemical_formula_structural       Si12V20H
_chemical_formula_sum              "Si12 V20 H1"
_cell_length_a       4.744046688079834
_cell_length_b       7.079945706893938
_cell_length_c       110.02460479736328
_cell_angle_alpha    90.0
_cell_angle_beta     90.0
_cell_angle_gamma    109.5746124716462

_space_group_name_H-M_alt    "P 1"
_space_group_IT_number       1

loop_
  _space_group_symop_operation_xyz
  'x, y, z'

loop_
  _atom_site_type_symbol
  _atom_site_label
  _atom_site_symmetry_multiplicity
  _atom_site_fract_x
  _atom_site_fract_y
  _atom_site_fract_z
  _atom_site_occupancy
  Si  Si1       1.0  0.009534638847707156  0.008319123087965336  0.9996215664350854  1.0000
  Si  Si2       1.0  0.004534638571886049  0.008319123087965336  0.9990152686818558  1.0000
  Si  Si3       1.0  0.007867037407122726  0.009998746480692497  0.9999345302722149  1.0000
  Si  Si4       1.0  0.002875704128106603  1.2539000460911998e-06  0.9993184178293402  1.0000
  Si  Si5       1.0  0.007840823555660485  0.005014087282114238  3.7793353960451826e-05  1.0000
  Si  Si6       1.0  0.0028757040779511557  0.00500125410009555  0.9994204051151971  1.0000
  Si  Si7       1.0  0.0012167695142100072  0.0016833849726132525  0.9990152686818558  1.0000
  Si  Si8       1.0  0.006216769790031116  0.0016833849726132525  0.9996215664350854  1.0000
  Si  Si9       1.0  0.007875703986760555  1.2539000460911998e-06  0.9993184178293402  1.0000
  Si  Si10      1.0  0.0028759254109806407  1.9706700780903705e-05  0.999935119684498  1.0000
  Si  Si11      1.0  0.0028977726349760495  0.005005034806895659  0.9998134120071603  1.0000
  Si  Si12      1.0  0.007875704353772264  0.00500125410009555  0.9992164305434832  1.0000
  V   V1        1.0  0.004624296051152987  0.008498438046499213  0.9997429550280161  1.0000
  V   V2        1.0  0.009624296326974096  0.008498438046499213  0.9991366572747864  1.0000
  V   V3        1.0  0.0003757039768494684  0.00500125410009555  0.9990152686818558  1.0000
  V   V4        1.0  0.005375704228131333  0.00500125410009555  0.9996215664350854  1.0000
  V   V5        1.0  0.0018969232601226886  0.0032044999989456467  8.776175539459592e-08  1.0000
  V   V6        1.0  0.0068746420220712375  0.0029991294366934957  0.9994095329505737  1.0000
  V   V7        1.0  0.00893004423999094  0.0070735812393452205  0.9998368362697622  1.0000
  V   V8        1.0  0.0038767662209611823  0.0070033784842725814  0.9992273021663675  1.0000
  V   V9        1.0  0.005375704228131333  0.00500125410009555  0.9990152686818558  1.0000
  V   V10       1.0  0.0003757039768494684  0.00500125410009555  0.9996215664350854  1.0000
  V   V11       1.0  0.006853900156192715  0.0029412597716248477  0.9998368324775876  1.0000
  V   V12       1.0  0.001874641795328618  0.0029991294366934957  0.9992273021663675  1.0000
  V   V13       1.0  0.006127112171151666  0.0015040697348543523  0.9988938806306642  1.0000
  V   V14       1.0  0.001127111895330557  0.0015040697348543523  0.9995001783838939  1.0000
  V   V15       1.0  0.004624296051152987  0.008498438046499213  0.9995001783838939  1.0000
  V   V16       1.0  0.009624296326974096  0.008498438046499213  0.9988938806306642  1.0000
  V   V17       1.0  0.0037733860349251124  0.006817224746495847  0.0  1.0000
  V   V18       1.0  0.008876766545860781  0.0070033784842725814  0.9994095329505737  1.0000
  V   V19       1.0  0.006127112171151666  0.0015040697348543523  0.9991366572747864  1.0000
  V   V20       1.0  0.001127111895330557  0.0015040697348543523  0.9997429550280161  1.0000
  H   H1        1.0  0.004056846428825663  0.002443942415973194  0.9999471603806425  1.0000
