data_image0
_chemical_formula_structural       HGa8
_chemical_formula_sum              "H1 Ga8"
_cell_length_a       4.634366035461426
_cell_length_b       4.667665958404541
_cell_length_c       101.40592956542969
_cell_angle_alpha    90.0
_cell_angle_beta     90.0
_cell_angle_gamma    90.0

_space_group_name_H-M_alt    "P 1"
_space_group_IT_number       1

loop_
  _space_group_symop_operation_xyz
  'x, y, z'

loop_
  _atom_site_type_symbol
  _atom_site_label
  _atom_site_symmetry_multiplicity
  _atom_site_fract_x
  _atom_site_fract_y
  _atom_site_fract_z
  _atom_site_occupancy
  H   H1        1.0  0.005833333386922689  0.004727319483200452  0.000147920790863138  1.0000
  Ga  Ga1       1.0  0.0025000000803840324  0.00918195900827527  0.9996128690151126  1.0000
  Ga  Ga2       1.0  0.0025000000803840324  0.0041819587688435925  0.9994677069820602  1.0000
  Ga  Ga3       1.0  0.0025000000803840324  0.0008180410715352896  0.999854838260839  1.0000
  Ga  Ga4       1.0  0.0025000000803840324  0.005818040911914171  0.0  1.0000
  Ga  Ga5       1.0  0.007499999839231935  0.00918195900827527  0.0  1.0000
  Ga  Ga6       1.0  0.007499999839231935  0.0041819587688435925  0.999854838260839  1.0000
  Ga  Ga7       1.0  0.007499999839231935  0.0008180410715352896  0.9994677069820602  1.0000
  Ga  Ga8       1.0  0.007499999839231935  0.005818040911914171  0.9996128690151126  1.0000
