data_image0
_chemical_formula_structural       COCu4Pt4Zn8Cu4Pt4Zn8
_chemical_formula_sum              "C1 O1 Cu8 Pt8 Zn16"
_cell_length_a       8.674238204956055
_cell_length_b       6.133612632751465
_cell_length_c       104.69695281982422
_cell_angle_alpha    90.0
_cell_angle_beta     90.0
_cell_angle_gamma    90.0

_space_group_name_H-M_alt    "P 1"
_space_group_IT_number       1

loop_
  _space_group_symop_operation_xyz
  'x, y, z'

loop_
  _atom_site_type_symbol
  _atom_site_label
  _atom_site_symmetry_multiplicity
  _atom_site_fract_x
  _atom_site_fract_y
  _atom_site_fract_z
  _atom_site_occupancy
  C   C1        1.0  0.002499999046585502  0.009999967178447715  0.0001468013470099008  1.0000
  O   O1        1.0  0.002499999046585502  0.009999967178447715  0.0002614175262859238  1.0000
  Cu  Cu1       1.0  7.500000010067182e-10  1.370000053317478e-08  0.9993732528669905  1.0000
  Cu  Cu2       1.0  1.9500000230960016e-09  0.009999986613859875  0.9997824088186126  1.0000
  Cu  Cu3       1.0  0.002499999046585502  0.005000045539600119  0.9999789322475473  1.0000
  Cu  Cu4       1.0  0.002500000764449462  0.005000013653377043  0.9995803801968383  1.0000
  Pt  Pt1       1.0  7.500000010067182e-10  0.005000013653377043  0.9993732528669905  1.0000
  Pt  Pt2       1.0  1.8500000639188408e-09  0.005000037340285614  0.9997884076000965  1.0000
  Pt  Pt3       1.0  0.002499999046585502  0.009999967178447715  0.9999813666016922  1.0000
  Pt  Pt4       1.0  0.002500000764449462  1.370000053317478e-08  0.9995803801968383  1.0000
  Zn  Zn1       1.0  0.009999997904205969  0.002421358546436797  0.9999999925990168  1.0000
  Zn  Zn2       1.0  7.500000010067182e-10  0.002500013811289767  0.9995803801968383  1.0000
  Zn  Zn3       1.0  0.002500000764449462  0.002500013811289767  0.9993732528669905  1.0000
  Zn  Zn4       1.0  0.002500001838114437  0.00250501675969038  0.9997818526062646  1.0000
  Zn  Zn5       1.0  0.002500000764449462  0.007500013799142635  0.9993732528669905  1.0000
  Zn  Zn6       1.0  0.0025000024823134226  0.007495011609937809  0.9997818514676519  1.0000
  Zn  Zn7       1.0  0.00999999962206993  0.0075786440105346155  0.0  1.0000
  Zn  Zn8       1.0  7.500000010067182e-10  0.007500013799142635  0.9995803801968383  1.0000
  Cu  Cu5       1.0  0.005000000669966944  1.370000053317478e-08  0.9993732528669905  1.0000
  Cu  Cu6       1.0  0.005000001958364915  0.009999986613859875  0.9997824088186126  1.0000
  Cu  Cu7       1.0  0.007499999072353461  0.005000045539600119  0.9999789322475473  1.0000
  Cu  Cu8       1.0  0.007500000790217422  0.005000013653377043  0.9995803801968383  1.0000
  Pt  Pt5       1.0  0.005000000669966944  0.005000013653377043  0.9993732528669905  1.0000
  Pt  Pt6       1.0  0.005000001958364915  0.005000037340285614  0.9997884076000965  1.0000
  Pt  Pt7       1.0  0.007499999072353461  0.009999967178447715  0.9999813666016922  1.0000
  Pt  Pt8       1.0  0.007500000790217422  1.370000053317478e-08  0.9995803801968383  1.0000
  Zn  Zn9       1.0  0.004999998093171004  0.002421358546436797  0.9999999925990168  1.0000
  Zn  Zn10      1.0  0.005000000669966944  0.002500013811289767  0.9995803801968383  1.0000
  Zn  Zn11      1.0  0.007500000790217422  0.002500013811289767  0.9993732528669905  1.0000
  Zn  Zn12      1.0  0.007500001649149402  0.00250501675969038  0.9997818526062646  1.0000
  Zn  Zn13      1.0  0.007500000790217422  0.007500013799142635  0.9993732528669905  1.0000
  Zn  Zn14      1.0  0.007500002508081382  0.007495011609937809  0.9997818514676519  1.0000
  Zn  Zn15      1.0  0.004999999381568974  0.0075786440105346155  0.0  1.0000
  Zn  Zn16      1.0  0.005000000669966944  0.007500013799142635  0.9995803801968383  1.0000
