data_image0
_chemical_formula_structural       HFe30Si18
_chemical_formula_sum              "H1 Fe30 Si18"
_cell_length_a       6.65066460904656
_cell_length_b       11.438680592023067
_cell_length_c       102.4676742553711
_cell_angle_alpha    90.57101202939108
_cell_angle_beta     114.18468182407796
_cell_angle_gamma    73.09956673338313

_space_group_name_H-M_alt    "P 1"
_space_group_IT_number       1

loop_
  _space_group_symop_operation_xyz
  'x, y, z'

loop_
  _atom_site_type_symbol
  _atom_site_label
  _atom_site_symmetry_multiplicity
  _atom_site_fract_x
  _atom_site_fract_y
  _atom_site_fract_z
  _atom_site_occupancy
  H   H1        1.0  0.009613138631943357  0.004871692488198485  0.00017771608935117215  1.0000
  Fe  Fe1       1.0  0.007619439004788014  0.0024819618646393675  0.9995356860471056  1.0000
  Fe  Fe2       1.0  0.007619439452829769  0.005815295312328466  0.9997997342557816  1.0000
  Fe  Fe3       1.0  0.00722910388350161  0.009198557745087276  4.3414808921211375e-05  1.0000
  Fe  Fe4       1.0  0.002390937930137856  0.0008152950550279943  0.9994036622584928  1.0000
  Fe  Fe5       1.0  0.002390938121972432  0.004148628416950268  0.9996677101694147  1.0000
  Fe  Fe6       1.0  0.0023736774735620596  0.007477203864310023  0.9999293149006498  1.0000
  Fe  Fe7       1.0  0.0076194391164357824  0.008277211411790537  0.9998057678611957  1.0000
  Fe  Fe8       1.0  0.00724389038979159  0.0016459046341530353  4.2934414281538266e-05  1.0000
  Fe  Fe9       1.0  0.0076194390791909285  0.004943878307168734  0.9995417196638245  1.0000
  Fe  Fe10      1.0  0.009994811415948497  0.009979954577889999  0.9999255072982737  1.0000
  Fe  Fe11      1.0  5.18859756885897e-06  0.003277211754857833  0.9994096955708073  1.0000
  Fe  Fe12      1.0  5.188585086749683e-06  0.006610545202546931  0.9996737434763917  1.0000
  Fe  Fe13      1.0  0.0023909380475695173  0.0016867119744209023  0.9996616765526957  1.0000
  Fe  Fe14      1.0  0.0022546777747795795  0.00501590768745197  0.9999140954878442  1.0000
  Fe  Fe15      1.0  0.0023909382258402176  0.008353378526731804  0.9993976286122553  1.0000
  Fe  Fe16      1.0  5.1887501115032834e-06  2.004534974424333e-05  0.9995296527343382  1.0000
  Fe  Fe17      1.0  5.188811646223313e-06  0.0033533785267318033  0.9997937009324358  1.0000
  Fe  Fe18      1.0  0.009924149585868541  0.006623099407179712  9.224021539054233e-06  1.0000
  Fe  Fe19      1.0  0.006671855569035229  0.000537517367781864  0.9996457060681301  1.0000
  Fe  Fe20      1.0  0.006807505526191191  0.0039131391343725985  0.9999113109831075  1.0000
  Fe  Fe21      1.0  0.0066718547500451055  0.007204184048743001  0.9993816581013155  1.0000
  Fe  Fe22      1.0  0.00333852175634173  0.0077597396805357335  0.9996897142521004  1.0000
  Fe  Fe23      1.0  0.0033614240174140502  0.0011128808046986496  0.999963184905467  1.0000
  Fe  Fe24      1.0  0.003338521922331794  0.004426406232846635  0.9994256660597516  1.0000
  Fe  Fe25      1.0  0.003338521571729237  0.009426406575913931  0.9998217383457636  1.0000
  Fe  Fe26      1.0  0.0032336097071834847  0.002916754720605994  7.281954728994975e-05  1.0000
  Fe  Fe27      1.0  0.0033385219409542218  0.006093072785157536  0.9995576901584372  1.0000
  Fe  Fe28      1.0  0.006671854565432613  0.008870850944121197  0.9995136821949787  1.0000
  Fe  Fe29      1.0  0.006671855511444561  0.002204184048743001  0.9997777301649323  1.0000
  Fe  Fe30      1.0  0.006537057195617679  0.0055915190333735865  4.315575038117567e-05  1.0000
  Si  Si1       1.0  5.1887482320784755e-06  0.0011638399350916676  0.9997445144435188  1.0000
  Si  Si2       1.0  0.00013209459802502842  0.004550734850148205  3.634224615069056e-05  1.0000
  Si  Si3       1.0  5.188442197197611e-06  0.007830506916236688  0.9994804664906777  1.0000
  Si  Si4       1.0  0.003959553483966547  0.009497173811614886  0.9996124905017303  1.0000
  Si  Si5       1.0  0.003927834277542672  0.0028722561477659454  0.9998741787560934  1.0000
  Si  Si6       1.0  0.0037907723979211817  0.006002535953452629  0.00013049643758220722  1.0000
  Si  Si7       1.0  0.006050823627279521  0.0008152950550279943  0.9994036620568344  1.0000
  Si  Si8       1.0  0.006050823512098187  0.004148628416950268  0.9996677102504388  1.0000
  Si  Si9       1.0  0.0060804403080634865  0.007511891398616752  0.9999512251134438  1.0000
  Si  Si10      1.0  0.003959553921678168  0.0024819618646393675  0.9995356862650912  1.0000
  Si  Si11      1.0  0.003959553755688104  0.005815295312328466  0.9997997341665938  1.0000
  Si  Si12      1.0  0.0039405993348025905  0.009088380310681743  6.458878099717896e-05  1.0000
  Si  Si13      1.0  0.005998412663576868  0.0004926311717806564  0.9998518771648341  1.0000
  Si  Si14      1.0  0.006143996467734722  0.003735059762322977  0.0001157078353852768  1.0000
  Si  Si15      1.0  0.0060508234518396155  0.007133416813042046  0.99959090567083  1.0000
  Si  Si16      1.0  5.1887760636021535e-06  0.008800083708420243  0.9997229299686053  1.0000
  Si  Si17      1.0  0.0001589734539913977  0.0020583902253266  6.517122898137881e-06  1.0000
  Si  Si18      1.0  5.188635037756496e-06  0.005466750260731144  0.9994588817680929  1.0000
