data_image0
_chemical_formula_structural       HTi24
_chemical_formula_sum              "H1 Ti24"
_cell_length_a       5.400145067739427
_cell_length_b       7.303570059251385
_cell_length_c       102.00716400146484
_cell_angle_alpha    93.52043348474379
_cell_angle_beta     92.86821062494575
_cell_angle_gamma    98.11833548980654

_space_group_name_H-M_alt    "P 1"
_space_group_IT_number       1

loop_
  _space_group_symop_operation_xyz
  'x, y, z'

loop_
  _atom_site_type_symbol
  _atom_site_label
  _atom_site_symmetry_multiplicity
  _atom_site_fract_x
  _atom_site_fract_y
  _atom_site_fract_z
  _atom_site_occupancy
  H   H1        1.0  0.00015353302282356793  0.004623963751284311  0.00014409595054642465  1.0000
  Ti  Ti1       1.0  0.004777022798108123  0.004680924955168966  0.9995248887359194  1.0000
  Ti  Ti2       1.0  0.001027022488081238  0.005930924603971046  0.9991326715931212  1.0000
  Ti  Ti3       1.0  0.008943688934726886  0.008847590795487584  0.9992634107073786  1.0000
  Ti  Ti4       1.0  0.0068603558586497835  0.0017642581180680142  0.9993941498307944  1.0000
  Ti  Ti5       1.0  0.005957578157535649  0.005028147108528851  0.9992416209439849  1.0000
  Ti  Ti6       1.0  0.0038742447263759544  0.00794481381651292  0.9993723598475605  1.0000
  Ti  Ti7       1.0  0.001790911486106414  0.0008614802998336132  0.9995030989668516  1.0000
  Ti  Ti8       1.0  0.00804091190879263  0.002111480271427899  0.9991108817485306  1.0000
  Ti  Ti9       1.0  0.0019298002036633205  0.0026670357426270917  0.9992852004805367  1.0000
  Ti  Ti10      1.0  0.009846466762142896  0.005583702450611161  0.999415939597361  1.0000
  Ti  Ti11      1.0  0.007763133676340859  0.00850036915859523  0.9995466785018513  1.0000
  Ti  Ti12      1.0  0.004013133614539792  0.00975036880739731  0.9991544616518698  1.0000
  Ti  Ti13      1.0  0.00648354573317327  0.006445438337313687  2.5420924054787387e-05  1.0000
  Ti  Ti14      1.0  0.002693689093228097  0.007597591146685506  0.9996556279286584  1.0000
  Ti  Ti15      1.0  0.0006746517561263743  0.0005398678990920617  0.9997918129984763  1.0000
  Ti  Ti16      1.0  0.0085671397672055  0.0033604166427025736  0.9999186074907601  1.0000
  Ti  Ti17      1.0  0.007624244514456691  0.00669481365124331  0.9997645769867054  1.0000
  Ti  Ti18      1.0  0.005517692029960566  0.009594108457388008  0.9998921427668738  1.0000
  Ti  Ti19      1.0  0.0034378328425427166  0.0024699075752019697  1.996570519270916e-05  1.0000
  Ti  Ti20      1.0  0.009707578290974047  0.003778146943259241  0.9996338377918856  1.0000
  Ti  Ti21      1.0  0.003671346955279506  0.004316771705006572  0.9998132728613303  1.0000
  Ti  Ti22      1.0  0.0014619494446093454  0.007232279718087067  0.9999406626118145  1.0000
  Ti  Ti23      1.0  0.00921493731510489  0.00024963080396087463  6.012578668261496e-05  1.0000
  Ti  Ti24      1.0  0.0056798004739618815  0.0014170358355912469  0.9996774179142536  1.0000
