data_image0
_chemical_formula_structural       COCo4Sn4Rh8Co4Sn4Rh8
_chemical_formula_sum              "C1 O1 Co8 Sn8 Rh16"
_cell_length_a       8.245770547610666
_cell_length_b       5.774974346160889
_cell_length_c       104.64984893798828
_cell_angle_alpha    90.0
_cell_angle_beta     69.50179919804592
_cell_angle_gamma    69.50179919804592

_space_group_name_H-M_alt    "P 1"
_space_group_IT_number       1

loop_
  _space_group_symop_operation_xyz
  'x, y, z'

loop_
  _atom_site_type_symbol
  _atom_site_label
  _atom_site_symmetry_multiplicity
  _atom_site_fract_x
  _atom_site_fract_y
  _atom_site_fract_z
  _atom_site_occupancy
  C   C1        1.0  0.004096093139954645  0.006701953507431651  0.9998335498052873  1.0000
  O   O1        1.0  0.004096093139954645  0.006701953507431651  0.9999482175743842  1.0000
  Co  Co1       1.0  0.001250000015600853  0.004375000082510043  0.9992757128169025  1.0000
  Co  Co2       1.0  0.001250000015600853  0.009375000172820511  0.9995516317447177  1.0000
  Co  Co3       1.0  0.006250000208011373  0.0018749999863047822  0.9994136722868924  1.0000
  Co  Co4       1.0  0.006250000208011373  0.006875000076615251  0.9996895912147076  1.0000
  Sn  Sn1       1.0  0.001250000015600853  0.004375000082510043  0.9995516317447177  1.0000
  Sn  Sn2       1.0  0.001250000015600853  0.009375000172820511  0.9992757128169025  1.0000
  Sn  Sn3       1.0  0.006250000208011373  0.0018749999863047822  0.9996895912147076  1.0000
  Sn  Sn4       1.0  0.006250000208011373  0.006875000076615251  0.9994136722868924  1.0000
  Rh  Rh1       1.0  0.0037500001768096675  0.0006249999567504009  0.999620611477919  1.0000
  Rh  Rh2       1.0  0.0037500001768096675  0.005624999885792175  0.9993446925501038  1.0000
  Rh  Rh3       1.0  0.0037500001768096675  0.005624999885792175  0.999620611477919  1.0000
  Rh  Rh4       1.0  0.0037500001768096675  0.0006249999567504009  0.9993446925501038  1.0000
  Rh  Rh5       1.0  0.008750000499227296  0.0031249997245833606  0.9994826520165067  1.0000
  Rh  Rh6       1.0  0.008750000499227296  0.008125000782505998  0.9997585709443217  1.0000
  Rh  Rh7       1.0  0.008750000499227296  0.008125000782505998  0.9994826520165067  1.0000
  Rh  Rh8       1.0  0.008750000499227296  0.0031249997245833606  0.9997585709443217  1.0000
  Co  Co5       1.0  0.001250000015600853  0.004375000082510043  0.9987238746764908  1.0000
  Co  Co6       1.0  0.001250000015600853  0.009375000172820511  0.998999793604306  1.0000
  Co  Co7       1.0  0.006250000208011373  0.0018749999863047822  0.9988618341464807  1.0000
  Co  Co8       1.0  0.006250000208011373  0.006875000076615251  0.9991377533590772  1.0000
  Sn  Sn5       1.0  0.001250000015600853  0.004375000082510043  0.998999793604306  1.0000
  Sn  Sn6       1.0  0.001250000015600853  0.009375000172820511  0.9987238746764908  1.0000
  Sn  Sn7       1.0  0.006250000208011373  0.0018749999863047822  0.9991377533590772  1.0000
  Sn  Sn8       1.0  0.006250000208011373  0.006875000076615251  0.9988618341464807  1.0000
  Rh  Rh9       1.0  0.0037500001768096675  0.0006249999567504009  0.9990687736222887  1.0000
  Rh  Rh10      1.0  0.0037500001768096675  0.005624999885792175  0.9987928544096922  1.0000
  Rh  Rh11      1.0  0.0037500001768096675  0.005624999885792175  0.9990687736222887  1.0000
  Rh  Rh12      1.0  0.0037500001768096675  0.0006249999567504009  0.9987928544096922  1.0000
  Rh  Rh13      1.0  0.008750000499227296  0.0031249997245833606  0.9989308141608763  1.0000
  Rh  Rh14      1.0  0.008750000499227296  0.008125000782505998  0.9992067330886915  1.0000
  Rh  Rh15      1.0  0.008750000499227296  0.008125000782505998  0.9989308141608763  1.0000
  Rh  Rh16      1.0  0.008750000499227296  0.0031249997245833606  0.9992067330886915  1.0000
