data_image0
_chemical_formula_structural       COAg12Al42Ca18
_chemical_formula_sum              "C1 O1 Ag12 Al42 Ca18"
_cell_length_a       9.61955738067627
_cell_length_b       14.897076645792747
_cell_length_c       104.12451934814453
_cell_angle_alpha    101.00475643089831
_cell_angle_beta     90.0
_cell_angle_gamma    107.8876245180167

_space_group_name_H-M_alt    "P 1"
_space_group_IT_number       1

loop_
  _space_group_symop_operation_xyz
  'x, y, z'

loop_
  _atom_site_type_symbol
  _atom_site_label
  _atom_site_symmetry_multiplicity
  _atom_site_fract_x
  _atom_site_fract_y
  _atom_site_fract_z
  _atom_site_occupancy
  C   C1        1.0  0.0017335045072032677  0.005783781179159342  0.00015663144831431242  1.0000
  O   O1        1.0  0.0017335045072032677  0.005783781179159342  0.0002718777398619154  1.0000
  Ag  Ag1       1.0  0.001071045080776247  0.0010278959059807351  0.9999176146611943  1.0000
  Ag  Ag2       1.0  0.0045040450049718935  0.004435511620700362  0.9997291473552001  1.0000
  Ag  Ag3       1.0  0.007683697869358214  0.007701026922179527  7.688416551926083e-05  1.0000
  Ag  Ag4       1.0  0.008874176798209024  0.008944581525216409  0.999864874069519  1.0000
  Ag  Ag5       1.0  0.002172726956190503  0.002244459593839569  0.9996693082606077  1.0000
  Ag  Ag6       1.0  0.005628971914340037  0.005644516006941741  2.933120884425666e-05  1.0000
  Ag  Ag7       1.0  0.0011707116904299637  0.0011021783892914022  0.9993650050600332  1.0000
  Ag  Ag8       1.0  0.0045040450049718935  0.004435511620700362  0.9991829338796525  1.0000
  Ag  Ag9       1.0  0.00783737835253791  0.007768844717998305  0.9995470761711568  1.0000
  Ag  Ag10      1.0  0.00883939364906581  0.008911126190768507  0.9993051659035089  1.0000
  Ag  Ag11      1.0  0.002172726956190503  0.002244459593839569  0.9991230947850601  1.0000
  Ag  Ag12      1.0  0.005506060301499795  0.005577793093470565  0.9994872370875523  1.0000
  Al  Al1       1.0  0.00027386818505326473  0.007800276048968744  0.9996870277070259  1.0000
  Al  Al2       1.0  0.0035718698042679045  0.0011435630376542883  3.8102994732231815e-05  1.0000
  Al  Al3       1.0  0.0069586109434309415  0.004454154929699563  0.9998796874664465  1.0000
  Al  Al4       1.0  0.0019219551962901687  0.009437672331584716  0.9998705126437388  1.0000
  Al  Al5       1.0  0.0052428690648188905  0.0027692771777500648  0.9996836413794302  1.0000
  Al  Al6       1.0  0.008651026939788658  0.00614230981847488  4.260229149746218e-05  1.0000
  Al  Al7       1.0  0.00500309444071409  0.009993347921865453  0.9998916498659763  1.0000
  Al  Al8       1.0  0.008338385615640041  0.003339985540214457  0.9996992278060726  1.0000
  Al  Al9       1.0  0.0016839641202067168  0.006714955816921407  5.464101253910776e-05  1.0000
  Al  Al10      1.0  0.006402903963282848  0.008879695396242138  0.99971142757162  1.0000
  Al  Al11      1.0  0.009820222151451941  0.002230540881879033  6.0917561603685675e-05  1.0000
  Al  Al12      1.0  0.0030950251542158362  0.005544439146951961  0.9998967780980329  1.0000
  Al  Al13      1.0  0.00023995676566451057  0.0077889136271144825  0.9999546776417609  1.0000
  Al  Al14      1.0  0.0036072013431888397  0.0011336093179287884  0.999772983810017  1.0000
  Al  Al15      1.0  0.006940534624706685  0.004466942683448766  0.9995909123470809  1.0000
  Al  Al16      1.0  0.008050894011511938  0.000567479170327361  0.9999111946342083  1.0000
  Al  Al17      1.0  0.001433902638920992  0.003910693902678849  0.9997148142327149  1.0000
  Al  Al18      1.0  0.0046518439913911585  0.007203064667208295  7.198207938012753e-05  1.0000
  Al  Al19      1.0  0.006309009119510284  0.008805805053546903  0.9999811387470431  1.0000
  Al  Al20      1.0  0.009742948590729527  0.0022296061280864332  0.9998031291613548  1.0000
  Al  Al21      1.0  0.0030695705541821093  0.005546361762500126  0.9996254718021282  1.0000
  Al  Al22      1.0  0.00027386818505326473  0.007800276048968744  0.9991408142314783  1.0000
  Al  Al23      1.0  0.0036072013431888397  0.0011336093179287884  0.9995049565849143  1.0000
  Al  Al24      1.0  0.006940534624706685  0.004466942683448766  0.9993228854081964  1.0000
  Al  Al25      1.0  0.0019095361003143817  0.009435943908790021  0.9993194990259942  1.0000
  Al  Al26      1.0  0.0052428690648188905  0.0027692771777500648  0.9991374279038826  1.0000
  Al  Al27      1.0  0.008576202861181763  0.006102610811492078  0.9995015702100375  1.0000
  Al  Al28      1.0  0.0050050524412718934  6.652399959079081e-06  0.9993350855133951  1.0000
  Al  Al29      1.0  0.008338385615640041  0.003339985540214457  0.999153014330525  1.0000
  Al  Al30      1.0  0.001671719497200582  0.00667331917395647  0.9995171566366798  1.0000
  Al  Al31      1.0  0.006402903963282848  0.008879695396242138  0.9991652143822904  1.0000
  Al  Al32      1.0  0.009736237572472004  0.002213028799313201  0.9995293564531711  1.0000
  Al  Al33      1.0  0.0030695705541821093  0.005546361762500126  0.9993472855516832  1.0000
  Al  Al34      1.0  0.00027386818505326473  0.007800276048968744  0.9994088414565809  1.0000
  Al  Al35      1.0  0.0036072013431888397  0.0011336093179287884  0.9992267703344694  1.0000
  Al  Al36      1.0  0.006940534624706685  0.004466942683448766  0.9990446991577513  1.0000
  Al  Al37      1.0  0.008100569399788373  0.0005773608053809066  0.9993506719412107  1.0000
  Al  Al38      1.0  0.001433902638920992  0.003910693902678849  0.9991686007571673  1.0000
  Al  Al39      1.0  0.004767236144837265  0.007244027536420862  0.9995327430633222  1.0000
  Al  Al40      1.0  0.006402903963282848  0.008879695396242138  0.9994434006327355  1.0000
  Al  Al41      1.0  0.009736237572472004  0.002213028799313201  0.9992613295142866  1.0000
  Al  Al42      1.0  0.0030695705541821093  0.005546361762500126  0.9990792583265806  1.0000
  Ca  Ca1       1.0  5.052700003841839e-06  6.652399959079081e-06  0.9996081922511689  1.0000
  Ca  Ca2       1.0  0.0032917947198959872  0.0032409759357026552  0.9999609320710399  1.0000
  Ca  Ca3       1.0  0.00667171955141728  0.00667331917395647  0.9997902633744536  1.0000
  Ca  Ca4       1.0  0.003286994637459227  0.007669556430791952  0.9998193803542231  1.0000
  Ca  Ca5       1.0  0.0066616138031598835  0.0009619205943771118  0.9996342812637283  1.0000
  Ca  Ca6       1.0  6.456722722367823e-05  0.0043415048935887225  9.089829787918533e-06  1.0000
  Ca  Ca7       1.0  0.003348491598998976  0.00905138432096034  0.9995821031845181  1.0000
  Ca  Ca8       1.0  0.006666451541894405  0.0023380118187125974  0.9999633609163391  1.0000
  Ca  Ca9       1.0  1.5158189898236934e-05  0.005718050687218329  0.9997641743539109  1.0000
  Ca  Ca10      1.0  5.052700003841839e-06  6.652399959079081e-06  0.9990619787756213  1.0000
  Ca  Ca11      1.0  0.0033383859486854745  0.003339985540214457  0.9994261210682988  1.0000
  Ca  Ca12      1.0  0.00667171955141728  0.00667331917395647  0.999244049898906  1.0000
  Ca  Ca13      1.0  0.003328280694560436  0.007628587124250541  0.9992701389047982  1.0000
  Ca  Ca14      1.0  0.0066616138031598835  0.0009619205943771118  0.9990880677881807  1.0000
  Ca  Ca15      1.0  0.009994946988990557  0.004295253758730563  0.9994522100815163  1.0000
  Ca  Ca16      1.0  0.003348491598998976  0.00905138432096034  0.9990358897089705  1.0000
  Ca  Ca17      1.0  0.006681824629551657  0.002384717321698351  0.9994000320550813  1.0000
  Ca  Ca18      1.0  1.5158189898236934e-05  0.005718050687218329  0.9992179608783632  1.0000
