data_image0
_chemical_formula_structural       COCu24Ge8
_chemical_formula_sum              "C1 O1 Cu24 Ge8"
_cell_length_a       7.102180124913967
_cell_length_b       8.298211876801103
_cell_length_c       99.40850830078125
_cell_angle_alpha    92.26252539081284
_cell_angle_beta     94.24654902941718
_cell_angle_gamma    97.53964897108139

_space_group_name_H-M_alt    "P 1"
_space_group_IT_number       1

loop_
  _space_group_symop_operation_xyz
  'x, y, z'

loop_
  _atom_site_type_symbol
  _atom_site_label
  _atom_site_symmetry_multiplicity
  _atom_site_fract_x
  _atom_site_fract_y
  _atom_site_fract_z
  _atom_site_occupancy
  C   C1        1.0  0.008661278505581278  0.006497418943318997  0.00011485354753241167  1.0000
  O   O1        1.0  0.008661278505581278  0.006497418943318997  0.00023556720594223197  1.0000
  Cu  Cu1       1.0  0.008324919411002376  0.00031877948570289787  0.9994694967430438  1.0000
  Cu  Cu2       1.0  0.0033249190426043232  0.004068779350815303  0.9996543935983883  1.0000
  Cu  Cu3       1.0  0.008281892962427257  0.007789564121349803  0.999848232821054  1.0000
  Cu  Cu4       1.0  0.0033528390144422007  0.0014020760745217483  5.350134726791211e-06  1.0000
  Cu  Cu5       1.0  0.004141507130587546  0.00968122050409552  0.9996845903180196  1.0000
  Cu  Cu6       1.0  0.009235717790870018  0.003412723039427346  0.9998713563206955  1.0000
  Cu  Cu7       1.0  0.004129463153218341  0.007060033516615787  2.9625007512585208e-05  1.0000
  Cu  Cu8       1.0  0.00914150690602839  0.005931220213917163  0.9994996934581374  1.0000
  Cu  Cu9       1.0  0.00041303987006185164  0.00875235958530495  0.999638792318463  1.0000
  Cu  Cu10      1.0  0.005404815666424864  0.0025091110381699447  0.9998134204407058  1.0000
  Cu  Cu11      1.0  0.00042698955549462487  0.006131160355925808  0.9999983388256013  1.0000
  Cu  Cu12      1.0  0.00541303997993976  0.005002359748530276  0.9994538954618443  1.0000
  Cu  Cu13      1.0  0.007903026561571718  0.0006348700041951085  0.9997316108215613  1.0000
  Cu  Cu14      1.0  0.00296921545115692  0.004284595422744017  0.9999211721353682  1.0000
  Cu  Cu15      1.0  0.00790302666748057  0.003134870008729145  0.9993618172385711  1.0000
  Cu  Cu16      1.0  0.0029030265218770524  0.0068848696188019785  0.9995467140942538  1.0000
  Cu  Cu17      1.0  0.0020533865151273673  0.0012476399794275153  0.9995152948842745  1.0000
  Cu  Cu18      1.0  0.0070533862316788  0.00499763981620219  0.9997001918958692  1.0000
  Cu  Cu19      1.0  0.002004003473146264  0.00867892904541419  0.9998911234392606  1.0000
  Cu  Cu20      1.0  0.007001960913744577  0.002427306585679048  4.5041929817675794e-05  1.0000
  Cu  Cu21      1.0  0.009563399689741507  0.0031151299459304866  0.9996073729636632  1.0000
  Cu  Cu22      1.0  0.0046280775964588515  0.006814840513332476  0.9997850176045412  1.0000
  Cu  Cu23      1.0  0.009586960169477125  0.0005636417026625663  0.9999719323341774  1.0000
  Cu  Cu24      1.0  0.0045633997393608626  0.00936513012729196  0.9994224762386958  1.0000
  Ge  Ge1       1.0  0.0015620633017475937  0.0015327247988512652  0.9997785241978077  1.0000
  Ge  Ge2       1.0  0.006682783861346067  0.005256839366025291  0.999973192402651  1.0000
  Ge  Ge3       1.0  0.0016157300977645394  0.004036887389237471  0.999406292005208  1.0000
  Ge  Ge4       1.0  0.006615730340287663  0.007786887226012145  0.9995911887197887  1.0000
  Ge  Ge5       1.0  0.000850696106780125  0.00846311161327443  0.9993780016111556  1.0000
  Ge  Ge6       1.0  0.005850696397302589  0.00221311233872032  0.9995628983409107  1.0000
  Ge  Ge7       1.0  0.0008506961723683726  0.005963112175494995  0.9997477951969208  1.0000
  Ge  Ge8       1.0  0.005915690080451997  0.009654641073457954  0.9999469493849574  1.0000
