data_image0
_chemical_formula_structural       COAl16Cu8
_chemical_formula_sum              "C1 O1 Al16 Cu8"
_cell_length_a       4.9744083291459065
_cell_length_b       7.830583342621744
_cell_length_c       108.34945678710938
_cell_angle_alpha    86.31383552046032
_cell_angle_beta     87.24261030041377
_cell_angle_gamma    79.64451573540639

_space_group_name_H-M_alt    "P 1"
_space_group_IT_number       1

loop_
  _space_group_symop_operation_xyz
  'x, y, z'

loop_
  _atom_site_type_symbol
  _atom_site_label
  _atom_site_symmetry_multiplicity
  _atom_site_fract_x
  _atom_site_fract_y
  _atom_site_fract_z
  _atom_site_occupancy
  C   C1        1.0  0.00039456417390768103  0.004449739045934128  5.8450284485103055e-05  1.0000
  O   O1        1.0  0.00039456417390768103  0.004449739045934128  0.00016920325616149397  1.0000
  Al  Al1       1.0  0.0004662932095649184  0.006791752166148774  0.9995157854650687  1.0000
  Al  Al2       1.0  0.0067162932116617115  0.0024167521855244026  0.999294571496967  1.0000
  Al  Al3       1.0  0.00649486427915278  0.00515075510079698  0.9999617226154427  1.0000
  Al  Al4       1.0  0.0038732588562631143  0.001084630855562966  0.9997343827318707  1.0000
  Al  Al5       1.0  0.009605436436446126  0.00857720907431679  0.9997693153646365  1.0000
  Al  Al6       1.0  0.005955462889498657  0.004210223822456248  0.9995446418351872  1.0000
  Al  Al7       1.0  0.0022054627743027205  0.00983522407433942  0.9993234281399463  1.0000
  Al  Al8       1.0  0.0020635251965979303  0.00325959227112996  0.9999711490989822  1.0000
  Al  Al9       1.0  0.0030209399697094116  0.0053214916867083  0.9997615788354551  1.0000
  Al  Al10      1.0  0.009311435149418817  0.0007523793325184305  0.9995566608914652  1.0000
  Al  Al11      1.0  0.005561434642465781  0.006377379644950441  0.9993354466466934  1.0000
  Al  Al12      1.0  0.006192977629479429  0.00016477605220765446  0.9999699336841507  1.0000
  Al  Al13      1.0  0.008303209577204918  0.002496609565320018  0.9997938448786008  1.0000
  Al  Al14      1.0  0.004800604455322692  0.008170850797491571  0.9995855169868662  1.0000
  Al  Al15      1.0  0.0010506040975034082  0.003795851059062558  0.999364303286615  1.0000
  Al  Al16      1.0  0.007300604529663353  0.009420851068750373  0.9991430893231096  1.0000
  Cu  Cu1       1.0  0.0010709485962379984  0.0035750517240155304  0.9996059545770862  1.0000
  Cu  Cu2       1.0  0.007320948893377976  0.009200052218094059  0.9993847406116283  1.0000
  Cu  Cu3       1.0  0.003570948738088643  0.004825051753078973  0.9991635269143059  1.0000
  Cu  Cu4       1.0  0.004696919034220116  0.007974239028387559  0.9998313599687034  1.0000
  Cu  Cu5       1.0  0.007945949168755401  0.005762551714327716  0.9997165615667467  1.0000
  Cu  Cu6       1.0  0.004195948912201091  0.0013875516126056662  0.9994953478679599  1.0000
  Cu  Cu7       1.0  0.000445948523390525  0.0070125515011958016  0.9992741341750114  1.0000
  Cu  Cu8       1.0  0.001193545652519291  0.00026865556338003714  0.9999377627290813  1.0000
