data_image0
_chemical_formula_structural       HY12
_chemical_formula_sum              "H1 Y12"
_cell_length_a       6.844150801374473
_cell_length_b       8.604769852826575
_cell_length_c       98.43295288085938
_cell_angle_alpha    93.0089963085
_cell_angle_beta     87.77446174476044
_cell_angle_gamma    77.40412702341081

_space_group_name_H-M_alt    "P 1"
_space_group_IT_number       1

loop_
  _space_group_symop_operation_xyz
  'x, y, z'

loop_
  _atom_site_type_symbol
  _atom_site_label
  _atom_site_symmetry_multiplicity
  _atom_site_fract_x
  _atom_site_fract_y
  _atom_site_fract_z
  _atom_site_occupancy
  H   H1        1.0  0.0033522597145780038  0.005797318611437742  0.00015949475707803756  1.0000
  Y   Y1        1.0  0.005729166528895682  0.009722222064185222  0.9998995713389625  1.0000
  Y   Y2        1.0  0.0019791667441500247  0.003055555524935887  0.999779214498969  1.0000
  Y   Y3        1.0  0.009479166919984154  0.006388889127919851  1.9927764933736643e-05  1.0000
  Y   Y4        1.0  0.006770833737829109  0.003611111014313449  0.999879511603057  1.0000
  Y   Y5        1.0  0.0030208332235524783  0.006944444395057882  0.999759155179458  1.0000
  Y   Y6        1.0  0.0005208333561568824  0.00027777780024866366  0.9999998683538015  1.0000
  Y   Y7        1.0  0.004479166899300967  0.009722222064185222  0.9995385010208258  1.0000
  Y   Y8        1.0  0.0007291667060200691  0.003055555524935887  0.9994181444847031  1.0000
  Y   Y9        1.0  0.008229166745675786  0.006388889127919851  0.9996588577510356  1.0000
  Y   Y10       1.0  0.005520833563520741  0.003611111014313449  0.9995184415891588  1.0000
  Y   Y11       1.0  0.0017708333216009359  0.006944444395057882  0.9993980848620566  1.0000
  Y   Y12       1.0  0.00927083348688816  0.00027777780024866366  0.9996387983178859  1.0000
