data_image0
_chemical_formula_structural       HNi16Ge16Ni16Ge16
_chemical_formula_sum              "H1 Ni32 Ge32"
_cell_length_a       11.422402443110043
_cell_length_b       6.8614464007449
_cell_length_c       111.1686782836914
_cell_angle_alpha    62.03386973702736
_cell_angle_beta     99.17794649516907
_cell_angle_gamma    80.82205340949254

_space_group_name_H-M_alt    "P 1"
_space_group_IT_number       1

loop_
  _space_group_symop_operation_xyz
  'x, y, z'

loop_
  _atom_site_type_symbol
  _atom_site_label
  _atom_site_symmetry_multiplicity
  _atom_site_fract_x
  _atom_site_fract_y
  _atom_site_fract_z
  _atom_site_occupancy
  H   H1        1.0  0.0009495283081914773  0.005023246207249021  3.449231729080368e-05  1.0000
  Ni  Ni1       1.0  0.0075324597577235836  0.00843377321714421  0.9992182451774976  1.0000
  Ni  Ni2       1.0  0.0025324601094523615  0.0009337732522444989  0.9990639424763282  1.0000
  Ni  Ni3       1.0  0.002532460221148013  0.00593377293634189  0.9987553375258447  1.0000
  Ni  Ni4       1.0  0.007532460010958443  0.00343377329372666  0.9989096401107407  1.0000
  Ni  Ni5       1.0  0.00746754005849031  0.0040662265913996645  0.9992532740885729  1.0000
  Ni  Ni6       1.0  0.0024675398922286715  0.006566226553108439  0.9990989714882715  1.0000
  Ni  Ni7       1.0  0.0024675398150951176  0.0015662266296908897  0.9987903661480184  1.0000
  Ni  Ni8       1.0  0.007467539759172655  0.009066226833910758  0.9989446688471086  1.0000
  Ni  Ni9       1.0  0.005032459967043427  0.0002837666984460012  0.9991781261959584  1.0000
  Ni  Ni10      1.0  3.2460089854148804e-05  0.002783766660154776  0.9990238236003944  1.0000
  Ni  Ni11      1.0  3.246007960885399e-05  0.00778376690266587  0.9993324289299796  1.0000
  Ni  Ni12      1.0  0.0050324600441769805  0.005283766621863551  0.9988695209698994  1.0000
  Ni  Ni13      1.0  0.009967540025271771  0.0022162332632627737  0.9992933929613321  1.0000
  Ni  Ni14      1.0  0.0049675395286417215  0.0047162332249715486  0.9991390903556165  1.0000
  Ni  Ni15      1.0  0.004967539936143687  0.009716233148389097  0.9988304851349719  1.0000
  Ni  Ni16      1.0  0.009967539725954117  0.007216233505773868  0.9989847877198679  1.0000
  Ge  Ge1       1.0  0.008446971089128485  0.004970626405339027  0.9990609406574806  1.0000
  Ge  Ge2       1.0  0.003446971253235257  0.007470626367047801  0.9989066380625935  1.0000
  Ge  Ge3       1.0  0.003446971153060306  0.002470626603177024  0.9992152432836569  1.0000
  Ge  Ge4       1.0  0.008446971450547652  0.00997062664785012  0.9987523354268448  1.0000
  Ge  Ge5       1.0  0.006553028727085409  0.007529373403204847  0.9987933680422778  1.0000
  Ge  Ge6       1.0  0.001553028754206125  2.9373398418443736e-05  0.9992562759032552  1.0000
  Ge  Ge7       1.0  0.001553028648874424  0.0050293734414960725  0.9989476706707425  1.0000
  Ge  Ge8       1.0  0.006553028342624844  0.002529373320240525  0.999101973267918  1.0000
  Ge  Ge9       1.0  0.0059469710491890215  0.007832401864388532  0.9990832700814374  1.0000
  Ge  Ge10      1.0  0.000946971303924822  0.0003324019992055541  0.9989289673757923  1.0000
  Ge  Ge11      1.0  0.0009469713013464474  0.005332401902679757  0.9992375727153163  1.0000
  Ge  Ge12      1.0  0.005946971302423879  0.002832401940970982  0.9987746647465985  1.0000
  Ge  Ge13      1.0  0.009053028767024872  0.0046675979441553415  0.998771038886403  1.0000
  Ge  Ge14      1.0  0.0040530286007632345  0.007167597905864117  0.9992339465843316  1.0000
  Ge  Ge15      1.0  0.004053028523629681  0.002167597982446567  0.9989253412440785  1.0000
  Ge  Ge16      1.0  0.009053028467707218  0.009667598186666437  0.9990796439431688  1.0000
  Ni  Ni17      1.0  0.00757819872998487  0.00857944133490196  0.9998164301674152  1.0000
  Ni  Ni18      1.0  0.0025004335600500934  0.000914442964168072  0.999683818629449  1.0000
  Ni  Ni19      1.0  0.002532460221148013  0.00593377293634189  0.9993725478240747  1.0000
  Ni  Ni20      1.0  0.007532460010958443  0.00343377329372666  0.9995268504089707  1.0000
  Ni  Ni21      1.0  0.00743405194216376  0.004295003580178518  0.9998500129449828  1.0000
  Ni  Ni22      1.0  0.002429638882507169  0.006574478950363789  0.9997180570289531  1.0000
  Ni  Ni23      1.0  0.0024675398150951176  0.0015662266296908897  0.9994075767143304  1.0000
  Ni  Ni24      1.0  0.007467539759172655  0.009066226833910758  0.9995618794134207  1.0000
  Ni  Ni25      1.0  0.004970070055197521  0.0004859333995841308  0.999785061337415  1.0000
  Ni  Ni26      1.0  3.2460089854148804e-05  0.002783766660154776  0.9996410341667065  1.0000
  Ni  Ni27      1.0  0.00010441441645030472  0.00792062229490362  0.9999259605772942  1.0000
  Ni  Ni28      1.0  0.0050324600441769805  0.005283766621863551  0.9994867315362115  1.0000
  Ni  Ni29      1.0  0.009869839803276652  0.0023205864252153377  0.9998931767596243  1.0000
  Ni  Ni30      1.0  0.004864972930327001  0.004755010748908568  0.9997552819850555  1.0000
  Ni  Ni31      1.0  0.004967539936143687  0.009716233148389097  0.9994476957012839  1.0000
  Ni  Ni32      1.0  0.009967539725954117  0.007216233505773868  0.9996019982861799  1.0000
  Ge  Ge17      1.0  0.008446971089128485  0.004970626405339027  0.9996781512237927  1.0000
  Ge  Ge18      1.0  0.003446971253235257  0.007470626367047801  0.9995238486289055  1.0000
  Ge  Ge19      1.0  0.003412396019202881  0.002454952728256956  0.9998394959898522  1.0000
  Ge  Ge20      1.0  0.008446971450547652  0.00997062664785012  0.9993695459931569  1.0000
  Ge  Ge21      1.0  0.006553028727085409  0.007529373403204847  0.9994105786085898  1.0000
  Ge  Ge22      1.0  0.001569401912336849  8.616549800166264e-05  0.9998785535542138  1.0000
  Ge  Ge23      1.0  0.001553028648874424  0.0050293734414960725  0.9995648812370546  1.0000
  Ge  Ge24      1.0  0.0065845917650317175  0.002401478712927559  0.9997405912454101  1.0000
  Ge  Ge25      1.0  0.005911574199786375  0.007827651837880792  0.9997058484411594  1.0000
  Ge  Ge26      1.0  0.000946971303924822  0.0003324019992055541  0.9995461779421043  1.0000
  Ge  Ge27      1.0  0.0009376057062355719  0.005136379547180018  0.9998666983032656  1.0000
  Ge  Ge28      1.0  0.005946971302423879  0.002832401940970982  0.9993918753129105  1.0000
  Ge  Ge29      1.0  0.009053028767024872  0.0046675979441553415  0.999388249184633  1.0000
  Ge  Ge30      1.0  0.004106480070977014  0.007235631840548721  0.9998481273374777  1.0000
  Ge  Ge31      1.0  0.004053028523629681  0.002167597982446567  0.9995425518103905  1.0000
  Ge  Ge32      1.0  0.009068531841544325  0.009708103283054947  0.999691162736548  1.0000
