data_image0
_chemical_formula_structural       HCo4Se8Co4Se8Co4Se8
_chemical_formula_sum              "H1 Co12 Se24"
_cell_length_a       10.524581504011575
_cell_length_b       5.864290237426758
_cell_length_c       103.0285873413086
_cell_angle_alpha    90.0
_cell_angle_beta     69.5926333289722
_cell_angle_gamma    90.0

_space_group_name_H-M_alt    "P 1"
_space_group_IT_number       1

loop_
  _space_group_symop_operation_xyz
  'x, y, z'

loop_
  _atom_site_type_symbol
  _atom_site_label
  _atom_site_symmetry_multiplicity
  _atom_site_fract_x
  _atom_site_fract_y
  _atom_site_fract_z
  _atom_site_occupancy
  H   H1        1.0  0.0054193445020169805  0.006161870244671056  0.9998069647942824  1.0000
  Co  Co1       1.0  0.005571527678275858  0.00993067374593318  0.9996332325577278  1.0000
  Co  Co2       1.0  0.0005222769735061756  6.932685100329198e-05  0.9994705206462686  1.0000
  Co  Co3       1.0  0.003017277262615651  0.005246433086567681  0.9995531123365586  1.0000
  Co  Co4       1.0  0.008032641955320528  0.005061067775542783  0.9996977443796556  1.0000
  Se  Se1       1.0  0.004337189366083983  0.006510370928667586  0.9996896097928938  1.0000
  Se  Se2       1.0  0.009477723294635386  0.00643206810949116  0.9994981743819623  1.0000
  Se  Se3       1.0  0.0007862592714589869  0.005200007111750658  0.9997579358789955  1.0000
  Se  Se4       1.0  0.006409402075801804  0.0037601879233102637  0.9996161500252069  1.0000
  Se  Se5       1.0  0.0017857329099530668  0.008698270983699546  0.9996216356969397  1.0000
  Se  Se6       1.0  0.006951813175952395  0.008624263724936796  0.9997619053581421  1.0000
  Se  Se7       1.0  0.004030655598894886  0.0013996264453106071  0.9995243310192444  1.0000
  Se  Se8       1.0  0.008945343710167005  0.0014719439391073148  0.9997030489818968  1.0000
  Co  Co5       1.0  0.00552227724920102  6.932685100329198e-05  0.9992924223390939  1.0000
  Co  Co6       1.0  0.0005222769735061756  6.932685100329198e-05  0.9991143240631298  1.0000
  Co  Co7       1.0  0.003022276969729534  0.005069326978251806  0.9992033730615251  1.0000
  Co  Co8       1.0  0.008022277339840421  0.005069326978251806  0.9993814716233888  1.0000
  Se  Se9       1.0  0.00443176213920201  0.006378462539318417  0.9993312661159599  1.0000
  Se  Se10      1.0  0.009431762320480812  0.006378462539318417  0.9991531678121481  1.0000
  Se  Se11      1.0  0.0016127918002570582  0.0037601914171851935  0.9994316768794917  1.0000
  Se  Se12      1.0  0.00661279235920003  0.0037601914171851935  0.9992535785622277  1.0000
  Se  Se13      1.0  0.001931762237394694  0.008760191340955195  0.999242216824939  1.0000
  Se  Se14      1.0  0.006931762229841411  0.008760191340955195  0.9994203154002548  1.0000
  Se  Se15      1.0  0.004112791890896459  0.0013784624567359186  0.9991645292913852  1.0000
  Se  Se16      1.0  0.009112792449839431  0.0013784624567359186  0.9993426278465226  1.0000
  Co  Co9       1.0  0.00552227724920102  6.932685100329198e-05  0.998936225755955  1.0000
  Co  Co10      1.0  0.0005222769735061756  6.932685100329198e-05  0.9987581274799909  1.0000
  Co  Co11      1.0  0.003022276969729534  0.005069326978251806  0.9988471764783863  1.0000
  Co  Co12      1.0  0.008022277339840421  0.005069326978251806  0.9990252747509872  1.0000
  Se  Se17      1.0  0.00443176213920201  0.006378462539318417  0.9989750695328211  1.0000
  Se  Se18      1.0  0.009431762320480812  0.006378462539318417  0.9987969712290093  1.0000
  Se  Se19      1.0  0.0016127918002570582  0.0037601914171851935  0.999075480296353  1.0000
  Se  Se20      1.0  0.00661279235920003  0.0037601914171851935  0.998897381979089  1.0000
  Se  Se21      1.0  0.001931762237394694  0.008760191340955195  0.9988860202418001  1.0000
  Se  Se22      1.0  0.006931762229841411  0.008760191340955195  0.9990641185278533  1.0000
  Se  Se23      1.0  0.004112791890896459  0.0013784624567359186  0.9988083327082463  1.0000
  Se  Se24      1.0  0.009112792449839431  0.0013784624567359186  0.9989864309741211  1.0000
