data_image0
_chemical_formula_structural       COCs2
_chemical_formula_sum              "C1 O1 Cs2"
_cell_length_a       5.700290203094482
_cell_length_b       5.700290203094482
_cell_length_c       102.24571228027344
_cell_angle_alpha    90.0
_cell_angle_beta     90.0
_cell_angle_gamma    90.0

_space_group_name_H-M_alt    "P 1"
_space_group_IT_number       1

loop_
  _space_group_symop_operation_xyz
  'x, y, z'

loop_
  _atom_site_type_symbol
  _atom_site_label
  _atom_site_symmetry_multiplicity
  _atom_site_fract_x
  _atom_site_fract_y
  _atom_site_fract_z
  _atom_site_occupancy
  C   C1        1.0  0.0024999998366183928  0.0024999998366183928  0.00019560703799187406  1.0000
  O   O1        1.0  0.0024999998366183928  0.0024999998366183928  0.00031297161055997253  1.0000
  Cs  Cs1       1.0  0.0024999998366183928  0.0075  0.0  1.0000
  Cs  Cs2       1.0  0.0075  0.0024999998366183928  0.9996057816656468  1.0000
