data_image0
_chemical_formula_structural       Si12Pt12Si12Pt12H
_chemical_formula_sum              "Si24 Pt24 H1"
_cell_length_a       7.2986674308776855
_cell_length_b       12.856462665243194
_cell_length_c       36.93355178833008
_cell_angle_alpha    74.38081606278857
_cell_angle_beta     90.0
_cell_angle_gamma    90.0

_space_group_name_H-M_alt    "P 1"
_space_group_IT_number       1

loop_
  _space_group_symop_operation_xyz
  'x, y, z'

loop_
  _atom_site_type_symbol
  _atom_site_label
  _atom_site_symmetry_multiplicity
  _atom_site_fract_x
  _atom_site_fract_y
  _atom_site_fract_z
  _atom_site_occupancy
  Si  Si1       1.0  0.0037500001531220735  0.005301781114095576  0.9991767523508307  1.0000
  Si  Si2       1.0  0.0037500001531220735  0.001983889012248483  0.9983709878260743  1.0000
  Si  Si3       1.0  0.0037500001531220735  0.008650556222487917  0.9976249078095633  1.0000
  Si  Si4       1.0  0.0012500001786424188  0.0013494443672183328  0.9978560289105239  1.0000
  Si  Si5       1.0  0.0012499997958372356  0.00802994575511245  0.9992896776001233  1.0000
  Si  Si6       1.0  0.0012500001786424188  0.004691346689969676  0.9986087513244398  1.0000
  Si  Si7       1.0  0.003749999897918618  0.0024994550452339835  0.9992364660599163  1.0000
  Si  Si8       1.0  0.0037500001531220735  0.009205984893584067  0.9984953909505087  1.0000
  Si  Si9       1.0  0.0037500001531220735  0.005872651664552518  0.9977493112495192  1.0000
  Si  Si10      1.0  0.0012500001786424188  0.004127348624283197  0.9977316254987665  1.0000
  Si  Si11      1.0  0.001250000051040691  0.0007855045199804608  0.9992371287563694  1.0000
  Si  Si12      1.0  0.0012500001786424188  0.007460681853314745  0.998477705199756  1.0000
  Pt  Pt1       1.0  0.0037500001531220735  0.0026705205542618712  0.9976523812228167  1.0000
  Pt  Pt2       1.0  0.003749999897918618  0.009370553855575519  0.9991217685965492  1.0000
  Pt  Pt3       1.0  0.0037500001531220735  0.006003854084163955  0.998398460895608  1.0000
  Pt  Pt4       1.0  0.0012500004338458744  0.004036124677938551  0.9992726782421159  1.0000
  Pt  Pt5       1.0  0.001250000051040691  0.0006850081950394353  0.998552797938593  1.0000
  Pt  Pt6       1.0  0.0012500001786424188  0.0073294800354443785  0.9978285554972705  1.0000
  Pt  Pt7       1.0  0.0037500001531220735  0.003961136909168254  0.9981937593808516  1.0000
  Pt  Pt8       1.0  0.0037500001531220735  0.0006278034168749879  0.9974476797045356  1.0000
  Pt  Pt9       1.0  0.0037500001531220735  0.0072717044682653895  0.9989493314189798  1.0000
  Pt  Pt10      1.0  0.0012499997958372356  0.0027071319853665815  0.9987490606286394  1.0000
  Pt  Pt11      1.0  0.0012500001786424188  0.009372196608699009  0.9980332570684235  1.0000
  Pt  Pt12      1.0  0.0012500001786424188  0.00603886337966746  0.997287177367434  1.0000
  Si  Si13      1.0  0.008750000612488294  0.005301781114095576  0.9991767523508307  1.0000
  Si  Si14      1.0  0.008750000612488294  0.001983889012248483  0.9983709878260743  1.0000
  Si  Si15      1.0  0.008750000612488294  0.008650556222487917  0.9976249078095633  1.0000
  Si  Si16      1.0  0.00625  0.0013494443672183328  0.9978560289105239  1.0000
  Si  Si17      1.0  0.006249999489593089  0.00802994575511245  0.9992896776001233  1.0000
  Si  Si18      1.0  0.00625  0.004691346689969676  0.9986087513244398  1.0000
  Si  Si19      1.0  0.008749999591674471  0.0024994550452339835  0.9992364660599163  1.0000
  Si  Si20      1.0  0.008750000612488294  0.009205984893584067  0.9984953909505087  1.0000
  Si  Si21      1.0  0.008750000612488294  0.005872651664552518  0.9977493112495192  1.0000
  Si  Si22      1.0  0.00625  0.004127348624283197  0.9977316254987665  1.0000
  Si  Si23      1.0  0.00625  0.0007855045199804608  0.9992371287563694  1.0000
  Si  Si24      1.0  0.00625  0.007460681853314745  0.998477705199756  1.0000
  Pt  Pt13      1.0  0.008750000612488294  0.0026705205542618712  0.9976523812228167  1.0000
  Pt  Pt14      1.0  0.008749999591674471  0.009370553855575519  0.9991217685965492  1.0000
  Pt  Pt15      1.0  0.008750000612488294  0.006003854084163955  0.998398460895608  1.0000
  Pt  Pt16      1.0  0.006250000510406911  0.004036124677938551  0.9992726782421159  1.0000
  Pt  Pt17      1.0  0.00625  0.0006850081950394353  0.998552797938593  1.0000
  Pt  Pt18      1.0  0.00625  0.0073294800354443785  0.9978285554972705  1.0000
  Pt  Pt19      1.0  0.008750000612488294  0.003961136909168254  0.9981937593808516  1.0000
  Pt  Pt20      1.0  0.008750000612488294  0.0006278034168749879  0.9974476797045356  1.0000
  Pt  Pt21      1.0  0.008749999591674471  0.0072717044682653895  0.9989493314189798  1.0000
  Pt  Pt22      1.0  0.00625  0.0027071319853665815  0.9987490606286394  1.0000
  Pt  Pt23      1.0  0.00625  0.009372196608699009  0.9980332570684235  1.0000
  Pt  Pt24      1.0  0.00625  0.00603886337966746  0.997287177367434  1.0000
  H   H1        1.0  0.005000000204162764  0.007366193461660602  0.9991196532809279  1.0000
