data_image0
_chemical_formula_structural       Al20Pd20CO
_chemical_formula_sum              "Al20 Pd20 C1 O1"
_cell_length_a       6.984492778778076
_cell_length_b       11.043452217002356
_cell_length_c       35.78311538696289
_cell_angle_alpha    104.96321844345806
_cell_angle_beta     90.0
_cell_angle_gamma    71.56505027092847

_space_group_name_H-M_alt    "P 1"
_space_group_IT_number       1

loop_
  _space_group_symop_operation_xyz
  'x, y, z'

loop_
  _atom_site_type_symbol
  _atom_site_label
  _atom_site_symmetry_multiplicity
  _atom_site_fract_x
  _atom_site_fract_y
  _atom_site_fract_z
  _atom_site_occupancy
  Al  Al1       1.0  0.008089682140322811  0.0041229464038152475  0.9990130190216034  1.0000
  Al  Al2       1.0  0.006089681931909718  0.008122946820641432  0.998534904084784  1.0000
  Al  Al3       1.0  8.968260396091799e-05  0.00012294625258642126  0.9994911339795872  1.0000
  Al  Al4       1.0  0.004089682429497936  0.002122946380165535  0.9980567890629924  1.0000
  Al  Al5       1.0  0.0020896824058482238  0.00612294642746496  0.9999692489802144  1.0000
  Al  Al6       1.0  0.005712628717433341  0.0038770540603103617  9.074155845451935e-05  1.0000
  Al  Al7       1.0  0.0037126286937836273  0.007877054107609787  0.999612626592189  1.0000
  Al  Al8       1.0  0.007712628404608502  0.0098770541312595  0.9981782816673125  1.0000
  Al  Al9       1.0  0.001712628832307204  0.0018770538518972698  0.9991345115851205  1.0000
  Al  Al10      1.0  0.009712628428258215  0.005877054083960075  0.998656396633578  1.0000
  Al  Al11      1.0  0.0003355749844717693  0.0027458925578304058  6.040140037666189e-07  1.0000
  Al  Al12      1.0  0.008335574447081304  0.006745892789893211  0.9995224890624612  1.0000
  Al  Al13      1.0  0.0023355747126067167  0.008745892813542924  0.9980881439293697  1.0000
  Al  Al14      1.0  0.006335574875383255  0.0007458924879898482  0.999044374051712  1.0000
  Al  Al15      1.0  0.004335574736256429  0.004745892766243498  0.9985662591038502  1.0000
  Al  Al16      1.0  0.0082208435814066  0.005745892778068354  0.997849086433197  1.0000
  Al  Al17      1.0  0.006220843557756887  0.00974589282536778  0.999761546558634  1.0000
  Al  Al18      1.0  0.00022084385211411356  0.0017458925460055493  0.9983272015929545  1.0000
  Al  Al19      1.0  0.004220843870581725  0.0037458927544186415  0.9992834315662885  1.0000
  Al  Al20      1.0  0.002220843846932013  0.007745892801718067  0.998805316600023  1.0000
  Pd  Pd1       1.0  0.008089682140322811  0.0041229464038152475  0.9982882988885196  1.0000
  Pd  Pd2       1.0  0.006089681931909718  0.008122946820641432  0.9978101839517001  1.0000
  Pd  Pd3       1.0  8.968260396091799e-05  0.00012294625258642126  0.9987664138465034  1.0000
  Pd  Pd4       1.0  0.004089682429497936  0.002122946380165535  0.9997226438133962  1.0000
  Pd  Pd5       1.0  0.0020896824058482238  0.00612294642746496  0.9992445288471307  1.0000
  Pd  Pd6       1.0  0.0004999998900834038  0.004302311736344869  0.9995693433753863  1.0000
  Pd  Pd7       1.0  0.008499999393652724  0.008302312153171053  0.9990912284385668  1.0000
  Pd  Pd8       1.0  0.002500000029210229  0.0003023114580912194  4.7458323248032906e-05  1.0000
  Pd  Pd9       1.0  0.006499999983622632  0.002302311527931777  0.9986131134020523  1.0000
  Pd  Pd10      1.0  0.00450000005235461  0.006302311390467823  0.9981349986292787  1.0000
  Pd  Pd11      1.0  0.00591031717620087  0.005533263755287721  0.9996674328100787  1.0000
  Pd  Pd12      1.0  0.0039103169677877775  0.009533264172113906  0.9991893178732593  1.0000
  Pd  Pd13      1.0  0.007910317199850582  0.0015332637079882958  0.00014554777634433636  1.0000
  Pd  Pd14      1.0  0.0019103171986930441  0.0035332637316380085  0.9987112028514677  1.0000
  Pd  Pd15      1.0  0.009910317235628267  0.007533264148464193  0.9982330879146483  1.0000
  Pd  Pd16      1.0  0.007858730709433551  0.0025332637198131522  0.999428375313906  1.0000
  Pd  Pd17      1.0  0.00585873050102046  0.0065332641366393366  0.9989502603770866  1.0000
  Pd  Pd18      1.0  0.009858729678479432  0.008533264160289048  0.9999064903356976  1.0000
  Pd  Pd19      1.0  0.0038587301985598234  0.0005332636961634396  0.998472145355295  1.0000
  Pd  Pd20      1.0  0.0018587301749101103  0.004533263743462865  0.9979940303890296  1.0000
  C   C1        1.0  0.0071229462526253  0.0061395784573538455  0.00015388386930166985  1.0000
  O   O1        1.0  0.0071229462526253  0.0061395784573538455  0.0004892374120718648  1.0000
