data_image0
_chemical_formula_structural       HAl3Fe6V3Al3Fe6V3Al3Fe6V3Al3Fe6V3
_chemical_formula_sum              "H1 Al12 Fe24 V12"
_cell_length_a       8.10521411895752
_cell_length_b       8.105214628490526
_cell_length_c       109.70728302001953
_cell_angle_alpha    90.0
_cell_angle_beta     90.0
_cell_angle_gamma    119.99999792044792

_space_group_name_H-M_alt    "P 1"
_space_group_IT_number       1

loop_
  _space_group_symop_operation_xyz
  'x, y, z'

loop_
  _atom_site_type_symbol
  _atom_site_label
  _atom_site_symmetry_multiplicity
  _atom_site_fract_x
  _atom_site_fract_y
  _atom_site_fract_z
  _atom_site_occupancy
  H   H1        1.0  0.0008333367611353519  0.0016666725222706843  2.9266817264764765e-05  1.0000
  Al  Al1       1.0  0.0016666675997170249  0.003333333899434024  0.9993976918562768  1.0000
  Al  Al2       1.0  3.6000000401875365e-09  1.5999999708217058e-09  0.0  1.0000
  Al  Al3       1.0  0.0033333342418091516  0.0016666672150767107  0.9996993071950846  1.0000
  Fe  Fe1       1.0  0.009999999677404278  0.009999999575424483  0.9997703048166727  1.0000
  Fe  Fe2       1.0  0.0033333342418091516  0.0016666672150767107  0.9994730956909788  1.0000
  Fe  Fe3       1.0  0.0016666675997170249  0.003333333899434024  0.9991714803521708  1.0000
  Fe  Fe4       1.0  0.0016666675997170249  0.003333333899434024  0.9996239033603826  1.0000
  Fe  Fe5       1.0  8.9999999045026e-10  5.999999574247985e-10  0.9993222880215749  1.0000
  Fe  Fe6       1.0  0.0033333368954061382  0.0016666725222706843  0.9999169632567855  1.0000
  V   V1        1.0  8.9999999045026e-10  5.999999574247985e-10  0.9995484995256807  1.0000
  V   V2        1.0  0.0033333342418091516  0.0016666672150767107  0.9992468841868728  1.0000
  V   V3        1.0  0.001666670092199219  0.0033333301843982426  0.9998618850495561  1.0000
  Al  Al4       1.0  0.0016666673583436336  0.008333333687146265  0.9993976918562768  1.0000
  Al  Al5       1.0  3.27298005302838e-09  0.005000001379870433  0.0  1.0000
  Al  Al6       1.0  0.003333334184074336  0.00666666726814865  0.9996993071950846  1.0000
  Fe  Fe7       1.0  0.009999999463034474  0.004999999256992844  0.9997703048166727  1.0000
  Fe  Fe8       1.0  0.003333334184074336  0.00666666726814865  0.9994730956909788  1.0000
  Fe  Fe9       1.0  0.0016666673583436336  0.008333333687146265  0.9991714803521708  1.0000
  Fe  Fe10      1.0  0.0016666673583436336  0.008333333687146265  0.9996239033603826  1.0000
  Fe  Fe11      1.0  6.739863206653515e-10  0.005000000318431639  0.9993222880215749  1.0000
  Fe  Fe12      1.0  0.003333336787671322  0.0066666725753426245  0.9999169632567855  1.0000
  V   V4        1.0  6.739863206653515e-10  0.005000000318431639  0.9995484995256807  1.0000
  V   V5        1.0  0.003333334184074336  0.00666666726814865  0.9992468841868728  1.0000
  V   V6        1.0  0.0016666698671826735  0.008333329972110485  0.9998618850495561  1.0000
  Al  Al7       1.0  0.006666667758642086  0.003333333899434024  0.9993976918562768  1.0000
  Al  Al8       1.0  0.005000003907007653  1.5999999708217058e-09  0.0  1.0000
  Al  Al9       1.0  0.008333334361309445  0.0016666672150767107  0.9996993071950846  1.0000
  Fe  Fe13      1.0  0.00499999918771223  0.009999999575424483  0.9997703048166727  1.0000
  Fe  Fe14      1.0  0.008333334361309445  0.0016666672150767107  0.9994730956909788  1.0000
  Fe  Fe15      1.0  0.006666667758642086  0.003333333899434024  0.9991714803521708  1.0000
  Fe  Fe16      1.0  0.006666667758642086  0.003333333899434024  0.9996239033603826  1.0000
  Fe  Fe17      1.0  0.005000001108925052  5.999999574247985e-10  0.9993222880215749  1.0000
  Fe  Fe18      1.0  0.008333337014906433  0.0016666725222706843  0.9999169632567855  1.0000
  V   V7        1.0  0.005000001108925052  5.999999574247985e-10  0.9995484995256807  1.0000
  V   V8        1.0  0.008333334361309445  0.0016666672150767107  0.9992468841868728  1.0000
  V   V9        1.0  0.006666670497289384  0.0033333301843982426  0.9998618850495561  1.0000
  Al  Al10      1.0  0.006666667707652188  0.008333333687146265  0.9993976918562768  1.0000
  Al  Al11      1.0  0.005000003622288607  0.005000001379870433  0.0  1.0000
  Al  Al12      1.0  0.008333334442999399  0.00666666726814865  0.9996993071950846  1.0000
  Fe  Fe19      1.0  0.004999999113725921  0.004999999256992844  0.9997703048166727  1.0000
  Fe  Fe20      1.0  0.008333334442999399  0.00666666726814865  0.9994730956909788  1.0000
  Fe  Fe21      1.0  0.006666667707652188  0.008333333687146265  0.9991714803521708  1.0000
  Fe  Fe22      1.0  0.006666667707652188  0.008333333687146265  0.9996239033603826  1.0000
  Fe  Fe23      1.0  0.005000000793486616  0.005000000318431639  0.9993222880215749  1.0000
  Fe  Fe24      1.0  0.008333337096596385  0.0066666725753426245  0.9999169632567855  1.0000
  V   V10       1.0  0.005000000793486616  0.005000000318431639  0.9995484995256807  1.0000
  V   V11       1.0  0.008333334442999399  0.00666666726814865  0.9992468841868728  1.0000
  V   V12       1.0  0.006666670216491228  0.008333329972110485  0.9998618850495561  1.0000
