data_image0
_chemical_formula_structural       HSi4Ir4Si4Ir4Si4Ir4
_chemical_formula_sum              "H1 Si12 Ir12"
_cell_length_a       6.391407012939453
_cell_length_b       6.4795717415327285
_cell_length_c       34.36614990234375
_cell_angle_alpha    60.003522067404354
_cell_angle_beta     90.0
_cell_angle_gamma    90.0

_space_group_name_H-M_alt    "P 1"
_space_group_IT_number       1

loop_
  _space_group_symop_operation_xyz
  'x, y, z'

loop_
  _atom_site_type_symbol
  _atom_site_label
  _atom_site_symmetry_multiplicity
  _atom_site_fract_x
  _atom_site_fract_y
  _atom_site_fract_z
  _atom_site_occupancy
  H   H1        1.0  0.004433037259362155  0.00484468820120795  0.9998100585198475  1.0000
  Si  Si1       1.0  0.009477125439391896  0.003143355094616312  0.9987869463112953  1.0000
  Si  Si2       1.0  0.0005228749263522446  0.006708679008025726  0.9989544098543753  1.0000
  Si  Si3       1.0  0.00561007505118716  0.007909478039357674  0.9992842428629005  1.0000
  Si  Si4       1.0  0.004438540032951222  0.0016051325976347431  0.9993913608876007  1.0000
  Ir  Ir1       1.0  0.003256000050396337  0.004866083315220056  0.9994629634023559  1.0000
  Ir  Ir2       1.0  0.00705279142642299  0.005101482013239376  0.9990364074709461  1.0000
  Ir  Ir3       1.0  0.0021515234188251918  0.009912924773703702  0.9990655824344614  1.0000
  Ir  Ir4       1.0  0.007858424641100493  0.00011478449167808731  0.9994599804765872  1.0000
  Si  Si5       1.0  0.009405984561263145  0.0031709943503144106  0.9978423693349188  1.0000
  Si  Si6       1.0  0.0006157426456972645  0.006829005198269861  0.9979688686542477  1.0000
  Si  Si7       1.0  0.005615742773926286  0.008170993792683216  0.998313682136681  1.0000
  Si  Si8       1.0  0.00440598414160453  0.0018290055899393902  0.9984401813665266  1.0000
  Ir  Ir5       1.0  0.002956083735453327  0.004983461694369502  0.9986141470399641  1.0000
  Ir  Ir6       1.0  0.007065642888647895  0.00501653785421477  0.9981397164475996  1.0000
  Ir  Ir7       1.0  0.0020656429061336706  0.009983461800584967  0.9981428342807533  1.0000
  Ir  Ir8       1.0  0.007956083863682349  1.653809937126698e-05  0.998611029173689  1.0000
  Si  Si9       1.0  0.009405984561263145  0.0031709943503144106  0.9968997438365216  1.0000
  Si  Si10      1.0  0.0006157426456972645  0.006829005198269861  0.9970262431558505  1.0000
  Si  Si11      1.0  0.005615742773926286  0.008170993792683216  0.997371056638284  1.0000
  Si  Si12      1.0  0.00440598414160453  0.0018290055899393902  0.9974975558681294  1.0000
  Ir  Ir9       1.0  0.002956083735453327  0.004983461694369502  0.9976715215415669  1.0000
  Ir  Ir10      1.0  0.007065642888647895  0.00501653785421477  0.9971970909492024  1.0000
  Ir  Ir11      1.0  0.0020656429061336706  0.009983461800584967  0.9972002087823563  1.0000
  Ir  Ir12      1.0  0.007956083863682349  1.653809937126698e-05  0.997668403675292  1.0000
