data_image0
_chemical_formula_structural       HIn20
_chemical_formula_sum              "H1 In20"
_cell_length_a       6.8887834548950195
_cell_length_b       10.333175284941516
_cell_length_c       102.49432373046875
_cell_angle_alpha    92.02486828605048
_cell_angle_beta     90.0
_cell_angle_gamma    90.0

_space_group_name_H-M_alt    "P 1"
_space_group_IT_number       1

loop_
  _space_group_symop_operation_xyz
  'x, y, z'

loop_
  _atom_site_type_symbol
  _atom_site_label
  _atom_site_symmetry_multiplicity
  _atom_site_fract_x
  _atom_site_fract_y
  _atom_site_fract_z
  _atom_site_occupancy
  H   H1        1.0  0.0025000022604446124  0.00827393685018979  2.9473378656141016e-05  1.0000
  In  In1       1.0  0.009999998226253987  0.0021823806133185156  0.9999992736820478  1.0000
  In  In2       1.0  4.950000100808609e-09  0.0076093931843196115  0.999838528120992  1.0000
  In  In3       1.0  2.1499999487151513e-09  0.004324765319248891  0.9993722513346357  1.0000
  In  In4       1.0  2.1499999487151513e-09  0.003324765544352355  0.999689286551035  1.0000
  In  In5       1.0  2.1499999487151513e-09  0.008824765027768763  0.9995307689181344  1.0000
  In  In6       1.0  0.0025000022604446124  0.0005747654419014192  0.9997685453662002  1.0000
  In  In7       1.0  0.0025000022604446124  0.0060747654664319245  0.9996100277352272  1.0000
  In  In8       1.0  0.002500008479371178  0.004898435365846  0.9999173822716229  1.0000
  In  In9       1.0  0.0025000022604446124  0.0015747653971693205  0.9994515101504434  1.0000
  In  In10      1.0  0.0024999963119061584  0.00942523429114896  5.042758122087042e-05  1.0000
  In  In11      1.0  0.004999998031574548  0.0021823806133185156  0.9999992736820478  1.0000
  In  In12      1.0  0.005000005061665448  0.0076093931843196115  0.999838528120992  1.0000
  In  In13      1.0  0.0050000023577843325  0.004324765319248891  0.9993722513346357  1.0000
  In  In14      1.0  0.0050000023577843325  0.003324765544352355  0.999689286551035  1.0000
  In  In15      1.0  0.0050000023577843325  0.008824765027768763  0.9995307689181344  1.0000
  In  In16      1.0  0.007500002184735941  0.0005747654419014192  0.9997685453662002  1.0000
  In  In17      1.0  0.007500002184735941  0.0060747654664319245  0.9996100277352272  1.0000
  In  In18      1.0  0.007500008674050618  0.004898435365846  0.9999173822716229  1.0000
  In  In19      1.0  0.007500002184735941  0.0015747653971693205  0.9994515101504434  1.0000
  In  In20      1.0  0.007499996236197487  0.00942523429114896  5.042758122087042e-05  1.0000
