data_image0
_chemical_formula_structural       COAl8Os4Al8Os4
_chemical_formula_sum              "C1 O1 Al16 Os8"
_cell_length_a       4.523580551147461
_cell_length_b       8.964681489923843
_cell_length_c       38.33493423461914
_cell_angle_alpha    75.386336320028
_cell_angle_beta     90.0
_cell_angle_gamma    75.386336320028

_space_group_name_H-M_alt    "P 1"
_space_group_IT_number       1

loop_
  _space_group_symop_operation_xyz
  'x, y, z'

loop_
  _atom_site_type_symbol
  _atom_site_label
  _atom_site_symmetry_multiplicity
  _atom_site_fract_x
  _atom_site_fract_y
  _atom_site_fract_z
  _atom_site_occupancy
  C   C1        1.0  0.008092805450274888  0.0053993159112305  0.00011063202532877213  1.0000
  O   O1        1.0  0.008092805450274888  0.0053993159112305  0.0004236626762773531  1.0000
  Al  Al1       1.0  0.008603388204797216  0.00437679487689743  0.9997417657734806  1.0000
  Al  Al2       1.0  0.0036754139529211185  0.004232633917453186  0.9991084813281013  1.0000
  Al  Al3       1.0  0.009613186761489263  0.002357479409715425  0.9992655241451455  1.0000
  Al  Al4       1.0  0.004552018700287982  0.002478054073946722  0.9997730765761125  1.0000
  Al  Al5       1.0  0.006195668547265758  0.009191145489389697  0.9988283205494014  1.0000
  Al  Al6       1.0  0.0012027726067918212  0.00918095707105129  0.9994400771244554  1.0000
  Al  Al7       1.0  0.0070429652237827  0.007500350242449482  0.9995434808591214  1.0000
  Al  Al8       1.0  0.002077960552889992  0.0074265607204964754  0.9989324323928256  1.0000
  Os  Os1       1.0  0.0003868138312312758  0.0008088536120508797  0.998732874446522  1.0000
  Os  Os2       1.0  0.0053685392799008805  0.0008477140829748775  0.9993101692067845  1.0000
  Os  Os3       1.0  0.007886814543763249  0.005808853496394716  0.9990278783493989  1.0000
  Os  Os4       1.0  0.002862441564022324  0.005859622103841555  0.9995898950725297  1.0000
  Al  Al9       1.0  0.008695668155814129  0.004191146272292957  0.9985333166071566  1.0000
  Al  Al10      1.0  0.003695667776991751  0.004191146272292957  0.9979433089083409  1.0000
  Al  Al11      1.0  0.009577960873884288  0.0024265608361526392  0.9980474207911332  1.0000
  Al  Al12      1.0  0.00457796049506191  0.0024265608361526392  0.9986374284899487  1.0000
  Al  Al13      1.0  0.006195668547265758  0.009191145489389697  0.9976483051517702  1.0000
  Al  Al14      1.0  0.0011956681684433814  0.009191145489389697  0.9982383128505858  1.0000
  Al  Al15      1.0  0.007077960931712369  0.0074265607204964754  0.9983424246940099  1.0000
  Al  Al16      1.0  0.002077960552889992  0.0074265607204964754  0.9977524169951942  1.0000
  Os  Os5       1.0  0.0003868138312312758  0.0008088536120508797  0.9975528590488908  1.0000
  Os  Os6       1.0  0.005386814107112789  0.0008088536120508797  0.9981428667477065  1.0000
  Os  Os7       1.0  0.007886814543763249  0.005808853496394716  0.9978478629517676  1.0000
  Os  Os8       1.0  0.0028868141649408714  0.005808853496394716  0.9984378706505832  1.0000
