data_image0
_chemical_formula_structural       COPt36Si12
_chemical_formula_sum              "C1 O1 Pt36 Si12"
_cell_length_a       9.589848530880772
_cell_length_b       11.09807278004374
_cell_length_c       99.17146301269531
_cell_angle_alpha    95.69053911435496
_cell_angle_beta     97.79106123698581
_cell_angle_gamma    104.70770416060205

_space_group_name_H-M_alt    "P 1"
_space_group_IT_number       1

loop_
  _space_group_symop_operation_xyz
  'x, y, z'

loop_
  _atom_site_type_symbol
  _atom_site_label
  _atom_site_symmetry_multiplicity
  _atom_site_fract_x
  _atom_site_fract_y
  _atom_site_fract_z
  _atom_site_occupancy
  C   C1        1.0  0.006046793659539337  0.0029292260286413346  0.00018195277730067135  1.0000
  O   O1        1.0  0.006046793659539337  0.0029292260286413346  0.00030295497238288095  1.0000
  Pt  Pt1       1.0  0.0065703419113403005  0.000246593401783368  0.9994633694957228  1.0000
  Pt  Pt2       1.0  0.002403675138160213  0.006913259755370295  0.9997084960577165  1.0000
  Pt  Pt3       1.0  0.008218440769337587  0.0036008644286747455  0.9999574410944425  1.0000
  Pt  Pt4       1.0  0.0021314323724357714  0.008473746839558158  0.9999463920134976  1.0000
  Pt  Pt5       1.0  0.0004974893209780248  0.005146993769462719  0.9994706939582289  1.0000
  Pt  Pt6       1.0  0.006330822488002624  0.0018136605926692552  0.9997158203203009  1.0000
  Pt  Pt7       1.0  0.006655587988241184  0.006839615690451516  0.9996279248223386  1.0000
  Pt  Pt8       1.0  0.002549053328774444  0.0035642064126162336  0.9998764836564019  1.0000
  Pt  Pt9       1.0  0.0008222549131929979  0.0001729489973541435  0.9993827983186697  1.0000
  Pt  Pt10      1.0  0.0074879714342719565  0.007747983377697574  0.9999236463594516  1.0000
  Pt  Pt11      1.0  0.005855814013931579  0.004441113791584578  0.9994366159791003  1.0000
  Pt  Pt12      1.0  0.0016891477890173515  0.001107780790022312  0.9996817424111902  1.0000
  Pt  Pt13      1.0  0.009874035982311555  0.006336118984147571  1.454086942966922e-05  1.0000
  Pt  Pt14      1.0  0.0082192751937224  0.003090565247283126  0.9995359323895139  1.0000
  Pt  Pt15      1.0  0.0040446938250387554  0.009768812630714063  0.9997778222392331  1.0000
  Pt  Pt16      1.0  0.004292127507025591  0.008190164585215362  0.9995286081244582  1.0000
  Pt  Pt17      1.0  0.00012596327945698773  0.004806278785018539  0.9997678166315264  1.0000
  Pt  Pt18      1.0  0.0060032310008141035  0.001493667748718844  3.7312536757072157e-06  1.0000
  Pt  Pt19      1.0  0.009745469358940478  0.009827050368746999  0.9998732526885625  1.0000
  Pt  Pt20      1.0  0.00813402828692801  0.006497542664226566  0.9993713771929988  1.0000
  Pt  Pt21      1.0  0.003967361951560279  0.003164209312201905  0.9996165039202651  1.0000
  Pt  Pt22      1.0  0.008933802150784112  0.00889604421263111  0.9995626860309005  1.0000
  Pt  Pt23      1.0  0.004809726670653168  0.0056090998155255666  0.9998265610921394  1.0000
  Pt  Pt24      1.0  0.0005458771921217768  0.0022759250477346602  3.241004444431534e-05  1.0000
  Pt  Pt25      1.0  0.006933281868940173  0.004464997803806374  0.9997226020267093  1.0000
  Pt  Pt26      1.0  0.002710275436981997  0.0010905635363257131  0.9999642556507731  1.0000
  Pt  Pt27      1.0  0.0010999487447091092  0.00779833080536864  0.9994774753627407  1.0000
  Pt  Pt28      1.0  0.006882400602338001  0.009424292676046962  0.9997255953563675  1.0000
  Pt  Pt29      1.0  0.002656370839242437  0.006140651387014647  0.9999666135754548  1.0000
  Pt  Pt30      1.0  0.0010490676403275751  0.002757626147228837  0.9994804688560033  1.0000
  Pt  Pt31      1.0  0.009534395791783208  0.007283351549153691  0.9997652630311248  1.0000
  Pt  Pt32      1.0  0.005457775879663618  0.003910543514801602  4.140090330995928e-06  1.0000
  Pt  Pt33      1.0  0.003740549127616199  0.0005795322827986597  0.9995188333829994  1.0000
  Pt  Pt34      1.0  0.009442988312492455  0.0021634281960084475  0.9997583495362807  1.0000
  Pt  Pt35      1.0  0.00519360365034045  0.008843162240919132  3.548003133389477e-06  1.0000
  Pt  Pt36      1.0  0.0036896680708612905  0.005538827198847047  0.9995218267158945  1.0000
  Si  Si1       1.0  0.0014411326869130867  0.00891951117460281  0.9997069125295343  1.0000
  Si  Si2       1.0  0.00730027478453433  0.005588314942263087  0.9999504205441704  1.0000
  Si  Si3       1.0  0.0056077991535990945  0.002252844470553488  0.999461786260147  1.0000
  Si  Si4       1.0  0.0062882714324922285  0.007797221942350742  0.9994217537139323  1.0000
  Si  Si5       1.0  0.0021216048520737787  0.004463888590326081  0.9996668801374732  1.0000
  Si  Si6       1.0  0.008068723717027044  0.0010965737911694062  0.9999267543903136  1.0000
  Si  Si7       1.0  0.0026680118162855093  0.008873269063427211  0.9993324219353436  1.0000
  Si  Si8       1.0  0.008501344732223462  0.005539936061864945  0.9995775482960686  1.0000
  Si  Si9       1.0  0.004329395597910642  0.002188240232652302  0.9998271837817186  1.0000
  Si  Si10      1.0  0.005066899191861921  0.007755765044716983  0.9997902523713746  1.0000
  Si  Si11      1.0  0.0008246734603557425  0.004473211590958864  2.0509421829138243e-05  1.0000
  Si  Si12      1.0  0.009181817504155703  0.0010843140032818083  0.9995375159177947  1.0000
