data_image0
_chemical_formula_structural       COSi8W4
_chemical_formula_sum              "C1 O1 Si8 W4"
_cell_length_a       4.5573063203404525
_cell_length_b       4.5803093910217285
_cell_length_c       101.68028259277344
_cell_angle_alpha    90.0
_cell_angle_beta     89.66633329124902
_cell_angle_gamma    90.0

_space_group_name_H-M_alt    "P 1"
_space_group_IT_number       1

loop_
  _space_group_symop_operation_xyz
  'x, y, z'

loop_
  _atom_site_type_symbol
  _atom_site_label
  _atom_site_symmetry_multiplicity
  _atom_site_fract_x
  _atom_site_fract_y
  _atom_site_fract_z
  _atom_site_occupancy
  C   C1        1.0  0.008613244297337234  0.008333333604442406  0.00012362644689943646  1.0000
  O   O1        1.0  0.008613244297337234  0.008333333604442406  0.00024164366727592594  1.0000
  Si  Si1       1.0  0.003756733747099831  0.0050000002439981655  0.9995697402888885  1.0000
  Si  Si2       1.0  0.006268398592234422  2.0000000323206228e-10  0.9997582753002578  1.0000
  Si  Si3       1.0  0.0012567338615423218  1.0000000161603114e-10  0.9993750105303282  1.0000
  Si  Si4       1.0  0.008558203181485544  0.0050000006506617746  0.9999625117575393  1.0000
  Si  Si5       1.0  0.008804609307985748  0.0050000002439981655  0.9996983171810044  1.0000
  Si  Si6       1.0  0.0011953901320634953  0.010000000487996331  0.9998989360203404  1.0000
  Si  Si7       1.0  0.006304609422428238  1.0000000161603114e-10  0.9995035874224442  1.0000
  Si  Si8       1.0  0.0038046095368707285  0.0050000002439981655  0.9993088576638839  1.0000
  W   W1        1.0  0.00878067202618507  0.0050000002439981655  0.9994392989402897  1.0000
  W   W2        1.0  0.0012806718586085657  1.0000000161603114e-10  0.9996340287708562  1.0000
  W   W3        1.0  0.006152540284541438  3.000000048480934e-10  0.9999983941176217  1.0000
  W   W4        1.0  0.0037608475459135426  0.0050000006506617746  0.9998288724432411  1.0000
