data_image0
_chemical_formula_structural       COAs2Cu6Se8
_chemical_formula_sum              "C1 O1 As2 Cu6 Se8"
_cell_length_a       5.711068630218506
_cell_length_b       6.952235471166493
_cell_length_c       100.71659851074219
_cell_angle_alpha    94.69785129078659
_cell_angle_beta     90.0
_cell_angle_gamma    114.25108593436423

_space_group_name_H-M_alt    "P 1"
_space_group_IT_number       1

loop_
  _space_group_symop_operation_xyz
  'x, y, z'

loop_
  _atom_site_type_symbol
  _atom_site_label
  _atom_site_symmetry_multiplicity
  _atom_site_fract_x
  _atom_site_fract_y
  _atom_site_fract_z
  _atom_site_occupancy
  C   C1        1.0  0.0009923898321804378  0.0026131752524068057  0.0001658117003333872  1.0000
  O   O1        1.0  0.0009923898321804378  0.0026131752524068057  0.0002849581418945086  1.0000
  As  As1       1.0  0.005356404060192893  0.0009501391493539429  0.999448003150171  1.0000
  As  As2       1.0  0.0032710196502860286  0.007689635317767838  0.999968756900302  1.0000
  Cu  Cu1       1.0  0.008273070704731243  0.00678347243843064  0.9993209277726836  1.0000
  Cu  Cu2       1.0  0.0024397375408888896  0.00511680588978167  0.9995750781076432  1.0000
  Cu  Cu3       1.0  0.0011897374818800417  0.0026168057717639737  0.9991938525197255  1.0000
  Cu  Cu4       1.0  0.006449757864415609  0.0036019682212335173  0.9998377234583171  1.0000
  Cu  Cu5       1.0  0.0008691645447361157  0.0023667247998231055  0.9999931409944447  1.0000
  Cu  Cu6       1.0  0.00952307076374009  0.009283472556448336  0.9997021533606013  1.0000
  Se  Se1       1.0  0.009417598447116086  0.0039822117946507205  0.9993852306421074  1.0000
  Se  Se2       1.0  0.002143596042122466  0.009614838511194499  0.9992520343227386  1.0000
  Se  Se3       1.0  0.0051455634995897495  0.005618773504404232  0.9991356708910049  1.0000
  Se  Se4       1.0  0.0063855256770847055  0.007918066828605828  0.9995107755357903  1.0000
  Se  Se5       1.0  0.007134036779015508  0.0003851617027125754  0.9998734183517408  1.0000
  Se  Se6       1.0  0.0004769294934734941  0.006281505413896556  0.999760334992658  1.0000
  Se  Se7       1.0  0.0034788968189697986  0.0022854398170178117  0.9996439718534911  1.0000
  Se  Se8       1.0  0.004854335495390128  0.0050798769726893836  2.8718815618803546e-05  1.0000
