data_image0
_chemical_formula_structural       COZn18
_chemical_formula_sum              "C1 O1 Zn18"
_cell_length_a       5.282415390014648
_cell_length_b       7.050014657004264
_cell_length_c       99.31120300292969
_cell_angle_alpha    79.10660578277327
_cell_angle_beta     90.0
_cell_angle_gamma    90.0

_space_group_name_H-M_alt    "P 1"
_space_group_IT_number       1

loop_
  _space_group_symop_operation_xyz
  'x, y, z'

loop_
  _atom_site_type_symbol
  _atom_site_label
  _atom_site_symmetry_multiplicity
  _atom_site_fract_x
  _atom_site_fract_y
  _atom_site_fract_z
  _atom_site_occupancy
  C   C1        1.0  0.002500000028208992  0.007231820931829554  0.00010073845796853724  1.0000
  O   O1        1.0  0.002500000028208992  0.007231820931829554  0.00022157039184105608  1.0000
  Zn  Zn1       1.0  0.007500000084626975  0.005555555256608191  0.9993888407765643  1.0000
  Zn  Zn2       1.0  0.007500000084626975  0.002222222156453802  0.9992994028716736  1.0000
  Zn  Zn3       1.0  0.007500000084626975  0.008888888625815208  0.9992099649965654  1.0000
  Zn  Zn4       1.0  0.002500000028208992  0.0077777776821146205  0.9993590281479188  1.0000
  Zn  Zn5       1.0  0.002500000028208992  0.004444444312907604  0.9992695902466376  1.0000
  Zn  Zn6       1.0  0.002500000028208992  0.001111111078226901  0.9991801523435517  1.0000
  Zn  Zn7       1.0  0.007500000084626975  0.005555555256608191  0.9996571544578443  1.0000
  Zn  Zn8       1.0  0.007500000084626975  0.002222222156453802  0.9995677165529537  1.0000
  Zn  Zn9       1.0  0.007500000084626975  0.008888888625815208  0.9994782786778454  1.0000
  Zn  Zn10      1.0  0.002500000028208992  0.0077777776821146205  0.9996273418291988  1.0000
  Zn  Zn11      1.0  0.002500000028208992  0.004444444312907604  0.9995379039279176  1.0000
  Zn  Zn12      1.0  0.002500000028208992  0.001111111078226901  0.9994484660248317  1.0000
  Zn  Zn13      1.0  0.007500000084626975  0.005555555256608191  0.9999254684392146  1.0000
  Zn  Zn14      1.0  0.007500000084626975  0.002222222156453802  0.9998360302342337  1.0000
  Zn  Zn15      1.0  0.007500000084626975  0.008888888625815208  0.9997465923591254  1.0000
  Zn  Zn16      1.0  0.002500000028208992  0.0077777776821146205  0.999895655810569  1.0000
  Zn  Zn17      1.0  0.002500000028208992  0.004444444312907604  0.9998062176091976  1.0000
  Zn  Zn18      1.0  0.002500000028208992  0.001111111078226901  0.9997167797061117  1.0000
