data_image0
_chemical_formula_structural       COCu4Se4Cu4Se4
_chemical_formula_sum              "C1 O1 Cu8 Se8"
_cell_length_a       5.4238057136535645
_cell_length_b       5.674250602722168
_cell_length_c       102.54283142089844
_cell_angle_alpha    90.0
_cell_angle_beta     90.0
_cell_angle_gamma    90.0

_space_group_name_H-M_alt    "P 1"
_space_group_IT_number       1

loop_
  _space_group_symop_operation_xyz
  'x, y, z'

loop_
  _atom_site_type_symbol
  _atom_site_label
  _atom_site_symmetry_multiplicity
  _atom_site_fract_x
  _atom_site_fract_y
  _atom_site_fract_z
  _atom_site_occupancy
  C   C1        1.0  0.002501096781508623  0.008539810126308367  0.00012329752816377137  1.0000
  O   O1        1.0  0.002501096781508623  0.008539810126308367  0.0002403214541444682  1.0000
  Cu  Cu1       1.0  0.006251269281540493  0.00999976464873343  0.9999086918559318  1.0000
  Cu  Cu2       1.0  0.0012492356665420464  2.3519998520474206e-07  0.9996276998124102  1.0000
  Cu  Cu3       1.0  0.006249235546344931  2.3519998520474206e-07  0.9996276998124102  1.0000
  Cu  Cu4       1.0  0.001250751266314389  6.740999944468693e-07  0.9999087749769465  1.0000
  Se  Se1       1.0  0.008750764178918806  0.002923888902521277  0.9999999488486063  1.0000
  Se  Se2       1.0  0.0037468744628906037  0.002629786316543956  0.9997667967273004  1.0000
  Se  Se3       1.0  0.0037514422967028574  0.007078945659519692  0.0  1.0000
  Se  Se4       1.0  0.008745870439213174  0.0073706970634968795  0.9997667635951476  1.0000
  Cu  Cu5       1.0  0.006249235546344931  2.3519998520474206e-07  0.9993632343191775  1.0000
  Cu  Cu6       1.0  0.0012492356665420464  2.3519998520474206e-07  0.9990987691165779  1.0000
  Cu  Cu7       1.0  0.006249235546344931  2.3519998520474206e-07  0.9990987691165779  1.0000
  Cu  Cu8       1.0  0.0012492356665420464  2.3519998520474206e-07  0.9993632343191775  1.0000
  Se  Se5       1.0  0.008749235958449328  0.0027540086581324375  0.9994954670657938  1.0000
  Se  Se6       1.0  0.0037492358210811953  0.0027540086581324375  0.9992310018631941  1.0000
  Se  Se7       1.0  0.0037492358210811953  0.007246461427266721  0.9994954670657938  1.0000
  Se  Se8       1.0  0.008749235958449328  0.007246461427266721  0.9992310018631941  1.0000
