data_image0
_chemical_formula_structural       HRe6Rh18Re6Rh18
_chemical_formula_sum              "H1 Re12 Rh36"
_cell_length_a       5.511938482716847
_cell_length_b       10.326680863628884
_cell_length_c       112.19078826904297
_cell_angle_alpha    83.87493297782629
_cell_angle_beta     113.07461349575037
_cell_angle_gamma    74.5213949419559

_space_group_name_H-M_alt    "P 1"
_space_group_IT_number       1

loop_
  _space_group_symop_operation_xyz
  'x, y, z'

loop_
  _atom_site_type_symbol
  _atom_site_label
  _atom_site_symmetry_multiplicity
  _atom_site_fract_x
  _atom_site_fract_y
  _atom_site_fract_z
  _atom_site_occupancy
  H   H1        1.0  0.003354130622119792  0.00413360413198041  9.906419921776009e-05  1.0000
  Re  Re1       1.0  0.0066754560529910245  0.0013618160920317107  0.9991328005502867  1.0000
  Re  Re2       1.0  0.006675456120449711  0.004695149312306843  0.9993417241373447  1.0000
  Re  Re3       1.0  0.006675455661178033  0.008028483303433344  0.9989238767827341  1.0000
  Re  Re4       1.0  0.003342122910263647  0.008584038197769725  0.9991676212587982  1.0000
  Re  Re5       1.0  0.0033421229070288655  0.0019173715645066185  0.9993765450130659  1.0000
  Re  Re6       1.0  0.0033421228428049607  0.005250704977494593  0.9989586974061005  1.0000
  Rh  Rh1       1.0  0.0033879630021368796  0.00024306499827070287  0.9989596549350644  1.0000
  Rh  Rh2       1.0  0.0033879629049923267  0.003576398459436888  0.9991685787822268  1.0000
  Rh  Rh3       1.0  0.00338796270908583  0.006909732065137705  0.9993775028917076  1.0000
  Rh  Rh4       1.0  0.008319202683428346  0.008599318784461372  0.9991657055669885  1.0000
  Rh  Rh5       1.0  0.00831920307524134  0.0019326515730597386  0.999374629334541  1.0000
  Rh  Rh6       1.0  0.008319202879334842  0.005265985178760556  0.9989567819887871  1.0000
  Rh  Rh7       1.0  0.00831920321565566  0.00024306499827070287  0.9989596550798789  1.0000
  Rh  Rh8       1.0  0.008319203118511108  0.003576398459436888  0.9991685789270413  1.0000
  Rh  Rh9       1.0  0.008319202187972044  0.006909732065137705  0.9993775024910969  1.0000
  Rh  Rh10      1.0  0.006629616596988417  0.009702789436065364  0.9993407666192053  1.0000
  Rh  Rh11      1.0  0.006629616593753636  0.003036122802802258  0.9989229189182383  1.0000
  Rh  Rh12      1.0  0.00662961652952973  0.006369456215790233  0.9991318430321473  1.0000
  Rh  Rh13      1.0  0.001698376068436693  0.0013465360834785905  0.9991347157010687  1.0000
  Rh  Rh14      1.0  0.0016983761878709297  0.0046798694964665655  0.9993436398185142  1.0000
  Rh  Rh15      1.0  0.0016983758880133322  0.008013202716741698  0.9989257919432646  1.0000
  Rh  Rh16      1.0  0.0016983763834696357  0.009702789436065364  0.9993407664743909  1.0000
  Rh  Rh17      1.0  0.0016983760129185704  0.003036122802802258  0.9989229190319906  1.0000
  Rh  Rh18      1.0  0.0016983759486946652  0.006369456215790233  0.9991318428802599  1.0000
  Re  Re7       1.0  0.006782201675699926  0.0013200709252019604  0.9997703137039545  1.0000
  Re  Re8       1.0  0.006570807442369416  0.004812654811622179  0.9999629336021293  1.0000
  Re  Re9       1.0  0.006675455661178033  0.008028483303433344  0.9995506482379689  1.0000
  Re  Re10      1.0  0.003466034534653922  0.008547869851526873  0.999807684588374  1.0000
  Re  Re11      1.0  0.003214210487408299  0.0019366875581160264  0.9999885091345555  1.0000
  Re  Re12      1.0  0.0033421228428049607  0.005250704977494593  0.9995854685956956  1.0000
  Rh  Rh19      1.0  0.0033879630021368796  0.00024306499827070287  0.9995864266559389  1.0000
  Rh  Rh20      1.0  0.0033617316579071634  0.0035725561507871117  0.9997941215540854  1.0000
  Rh  Rh21      1.0  0.003322197045869933  0.0068775366868517075  0.9999964249991009  1.0000
  Rh  Rh22      1.0  0.008305351653473026  0.008576810695332109  0.9997893993587653  1.0000
  Rh  Rh23      1.0  0.008236267102570919  0.0020318954107258896  0.9999974334512315  1.0000
  Rh  Rh24      1.0  0.008319202879334842  0.005265985178760556  0.9995835534440218  1.0000
  Rh  Rh25      1.0  0.00831920321565566  0.00024306499827070287  0.999586426269474  1.0000
  Rh  Rh26      1.0  0.00832564615837931  0.0035742682116781045  0.9997941336990273  1.0000
  Rh  Rh27      1.0  0.008290021311687112  0.006877422600849066  0.9999963863868369  1.0000
  Rh  Rh28      1.0  0.00662031658903612  0.009756935577940695  0.9999690426530031  1.0000
  Rh  Rh29      1.0  0.006629616593753636  0.003036122802802258  0.9995496903734731  1.0000
  Rh  Rh30      1.0  0.006665160603540296  0.006349227534159692  0.9997579834305935  1.0000
  Rh  Rh31      1.0  0.0016938864532957312  0.0013358950584653145  0.9997604118411899  1.0000
  Rh  Rh32      1.0  0.0017621979522247186  0.004560668124138989  0.9999708430358453  1.0000
  Rh  Rh33      1.0  0.0016983758880133322  0.008013202716741698  0.9995525633984993  1.0000
  Rh  Rh34      1.0  0.0016757319908819208  0.009756446087321253  0.9999690730031627  1.0000
  Rh  Rh35      1.0  0.0016983760129185704  0.003036122802802258  0.9995496902215857  1.0000
  Rh  Rh36      1.0  0.0016743543021242825  0.006348813972400116  0.9997580410629802  1.0000
