data_image0
_chemical_formula_structural       HNi6Rh12Sn6
_chemical_formula_sum              "H1 Ni6 Rh12 Sn6"
_cell_length_a       6.227488994598389
_cell_length_b       7.627085351049794
_cell_length_c       103.53605651855469
_cell_angle_alpha    94.34775316770053
_cell_angle_beta     90.0
_cell_angle_gamma    114.0948420707975

_space_group_name_H-M_alt    "P 1"
_space_group_IT_number       1

loop_
  _space_group_symop_operation_xyz
  'x, y, z'

loop_
  _atom_site_type_symbol
  _atom_site_label
  _atom_site_symmetry_multiplicity
  _atom_site_fract_x
  _atom_site_fract_y
  _atom_site_fract_z
  _atom_site_occupancy
  H   H1        1.0  0.00688088365669879  0.004067875439735491  8.911810201422875e-05  1.0000
  Ni  Ni1       1.0  0.0016403411017464206  0.00358738856151335  0.9997618062109671  1.0000
  Ni  Ni2       1.0  0.007481467061885066  0.005274147297653637  0.9994882717077268  1.0000
  Ni  Ni3       1.0  0.0058170491104453294  0.001939447828329133  1.0831047633045979e-05  1.0000
  Ni  Ni4       1.0  0.004564800615735179  0.009440814286461407  0.9996232327597938  1.0000
  Ni  Ni5       1.0  0.00039813399819412903  0.0011074808457477063  0.9993533103708132  1.0000
  Ni  Ni6       1.0  0.00876795398733649  0.007842608918226465  0.9998991633016949  1.0000
  Rh  Rh1       1.0  0.0035231339713621863  0.002357480673939118  0.9995557524691334  1.0000
  Rh  Rh2       1.0  0.009356467076005239  0.004024147469462226  0.9992858298972515  1.0000
  Rh  Rh3       1.0  0.007581919606965869  0.0005620345495946794  0.9998246035373748  1.0000
  Rh  Rh4       1.0  0.008523133678243684  0.002357480673939118  0.9995557524691334  1.0000
  Rh  Rh5       1.0  0.004356467219573484  0.004024147469462226  0.9992858298972515  1.0000
  Rh  Rh6       1.0  0.002669939563584625  0.0005591857484372119  0.9998244903363842  1.0000
  Rh  Rh7       1.0  0.006439800445526449  0.008190813921368157  0.9994207912341649  1.0000
  Rh  Rh8       1.0  0.004912777436690877  0.004820342293219945  0.9999489183483328  1.0000
  Rh  Rh9       1.0  0.0006064671913331416  0.006524147125845049  0.9996907135182022  1.0000
  Rh  Rh10      1.0  0.001439800589094695  0.008190813921368157  0.9994207912341649  1.0000
  Rh  Rh11      1.0  0.009601865642641014  0.004821918637019101  0.999948873612443  1.0000
  Rh  Rh12      1.0  0.005606467047764897  0.006524147125845049  0.9996907135182022  1.0000
  Sn  Sn1       1.0  0.009564800556288952  0.009440814286461407  0.9996232327597938  1.0000
  Sn  Sn2       1.0  0.005398133835932102  0.0011074808457477063  0.9993533103708132  1.0000
  Sn  Sn3       1.0  0.0037141446824999584  0.007735861020802789  0.99990829688917  1.0000
  Sn  Sn4       1.0  0.006620054748563084  0.0035494395341836207  0.9997505922741913  1.0000
  Sn  Sn5       1.0  0.0024814671680657486  0.005274147297653637  0.9994882717077268  1.0000
  Sn  Sn6       1.0  0.000861493508148369  0.002030718859117782  1.870383186500481e-05  1.0000
