data_image0
_chemical_formula_structural       COCo6Se12V3
_chemical_formula_sum              "C1 O1 Co6 Se12 V3"
_cell_length_a       6.543418461927405
_cell_length_b       6.556862362135818
_cell_length_c       100.87855529785156
_cell_angle_alpha    92.44224821455408
_cell_angle_beta     92.54725108144413
_cell_angle_gamma    112.4864106792534

_space_group_name_H-M_alt    "P 1"
_space_group_IT_number       1

loop_
  _space_group_symop_operation_xyz
  'x, y, z'

loop_
  _atom_site_type_symbol
  _atom_site_label
  _atom_site_symmetry_multiplicity
  _atom_site_fract_x
  _atom_site_fract_y
  _atom_site_fract_z
  _atom_site_occupancy
  C   C1        1.0  0.005951953928230374  0.0011130507077106806  9.952908194422341e-05  1.0000
  O   O1        1.0  0.005951953928230374  0.0011130507077106806  0.00021848364744746134  1.0000
  Co  Co1       1.0  0.0009172900907058487  0.005644313367302505  0.9999219118367464  1.0000
  Co  Co2       1.0  0.005763042316874353  0.0009280357335178362  0.9999273030017213  1.0000
  Co  Co3       1.0  0.002656244954117416  0.007646642401921136  0.9996172803521539  1.0000
  Co  Co4       1.0  0.007781251761898125  0.0030600732083152357  0.9996275812336831  1.0000
  Co  Co5       1.0  0.004656245070343247  0.009646642860365347  0.9993111839736957  1.0000
  Co  Co6       1.0  0.009781251509904018  0.005060073358665219  0.9993214848533101  1.0000
  Se  Se1       1.0  0.007073459846357233  0.004510383961026603  0.9998430299860045  1.0000
  Se  Se2       1.0  0.009360470448054568  0.002231009048377478  3.316342882932361e-05  1.0000
  Se  Se3       1.0  0.004670978097370362  0.0075358492528167795  3.341986372973242e-05  1.0000
  Se  Se4       1.0  0.0019307118514526821  0.009406803827719308  0.9998401407364418  1.0000
  Se  Se5       1.0  0.008940745092001358  0.006430930923322021  0.9995229409906737  1.0000
  Se  Se6       1.0  0.0014967516774405994  0.0042757846869143495  0.9997219202998896  1.0000
  Se  Se7       1.0  0.00649558811588433  0.009349479199488971  0.9997233075231682  1.0000
  Se  Se8       1.0  0.003941908350807938  0.0013572364107473994  0.9995215534710946  1.0000
  Se  Se9       1.0  0.0009407452552424335  0.008430931381766232  0.9992168449195958  1.0000
  Se  Se10      1.0  0.003496751573681904  0.006275784529170105  0.9994158239190906  1.0000
  Se  Se11      1.0  0.008495587925552044  0.0013494792142774946  0.9994172113700768  1.0000
  Se  Se12      1.0  0.005941908383754714  0.0033572365610973825  0.999215457091543  1.0000
  V   V1        1.0  0.008120325827657248  0.0085019095137999  0.9999128852773926  1.0000
  V   V2        1.0  0.00021874829953579214  0.0003533576988256769  0.99962243076439  1.0000
  V   V3        1.0  0.0022187482433743046  0.0023533577336403246  0.9993163343842614  1.0000
