data_image0
_chemical_formula_structural       COAg4Au12Ag4Au12
_chemical_formula_sum              "C1 O1 Ag8 Au24"
_cell_length_a       5.906440258026123
_cell_length_b       12.787231882252463
_cell_length_c       104.27082061767578
_cell_angle_alpha    67.48850860687398
_cell_angle_beta     90.0
_cell_angle_gamma    62.49013066957108

_space_group_name_H-M_alt    "P 1"
_space_group_IT_number       1

loop_
  _space_group_symop_operation_xyz
  'x, y, z'

loop_
  _atom_site_type_symbol
  _atom_site_label
  _atom_site_symmetry_multiplicity
  _atom_site_fract_x
  _atom_site_fract_y
  _atom_site_fract_z
  _atom_site_occupancy
  C   C1        1.0  0.0012014208545422097  0.009216574732136506  0.9998344728821846  1.0000
  O   O1        1.0  0.0012014208545422097  0.009216574732136506  0.9999495580445302  1.0000
  Ag  Ag1       1.0  0.007137228136340561  0.0032807674503381543  0.9989068975792558  1.0000
  Ag  Ag2       1.0  0.007137228351409659  0.008280767916443053  0.9991416626225992  1.0000
  Ag  Ag3       1.0  0.003803894665155225  0.0016141008710661563  0.9992199177383413  1.0000
  Ag  Ag4       1.0  0.0038038949777965637  0.006614100608882151  0.9989851525939619  1.0000
  Au  Au1       1.0  0.00879857802454297  0.0016194175621357448  0.9992196681035789  1.0000
  Au  Au2       1.0  0.008798578421684295  0.006619417846168417  0.998984902933553  1.0000
  Au  Au3       1.0  0.00879857834492629  0.004111442485475472  0.9991026599792584  1.0000
  Au  Au4       1.0  0.008798578293423176  0.009111442587435918  0.9988678948177814  1.0000
  Au  Au5       1.0  0.00381452848819686  0.004111442485475472  0.9991026599792584  1.0000
  Au  Au6       1.0  0.0038145278059770822  0.009111442587435918  0.9988678948177814  1.0000
  Au  Au7       1.0  0.002142544959025042  0.00327545057719634  0.998907147222567  1.0000
  Au  Au8       1.0  0.002142544907521928  0.008275450679156787  0.9991419122830081  1.0000
  Au  Au9       1.0  0.002142545402644493  0.0007834258359288384  0.9990241553383387  1.0000
  Au  Au10      1.0  0.0021425450357830467  0.005783425937889285  0.9987893901768617  1.0000
  Au  Au11      1.0  0.0071265949440155905  0.0007834258359288384  0.9990241553383387  1.0000
  Au  Au12      1.0  0.007126594892512476  0.005783425937889285  0.9987893901768617  1.0000
  Ag  Ag5       1.0  0.007137228136340561  0.0032807674503381543  0.9993764278011739  1.0000
  Ag  Ag6       1.0  0.007137228351409659  0.008280767916443053  0.9996111928445172  1.0000
  Ag  Ag7       1.0  0.003803894665155225  0.0016141008710661563  0.9996894479602593  1.0000
  Ag  Ag8       1.0  0.0038038949777965637  0.006614100608882151  0.9994546828158799  1.0000
  Au  Au13      1.0  0.00879857802454297  0.0016194175621357448  0.9996891983254969  1.0000
  Au  Au14      1.0  0.008798578421684295  0.006619417846168417  0.999454433155471  1.0000
  Au  Au15      1.0  0.00879857834492629  0.004111442485475472  0.9995721902011764  1.0000
  Au  Au16      1.0  0.008798578293423176  0.009111442587435918  0.9993374250396994  1.0000
  Au  Au17      1.0  0.00381452848819686  0.004111442485475472  0.9995721902011764  1.0000
  Au  Au18      1.0  0.0038145278059770822  0.009111442587435918  0.9993374250396994  1.0000
  Au  Au19      1.0  0.002142544959025042  0.00327545057719634  0.9993766774444851  1.0000
  Au  Au20      1.0  0.002142544907521928  0.008275450679156787  0.9996114425049261  1.0000
  Au  Au21      1.0  0.002142545402644493  0.0007834258359288384  0.9994936855602566  1.0000
  Au  Au22      1.0  0.0021425450357830467  0.005783425937889285  0.9992589203987797  1.0000
  Au  Au23      1.0  0.0071265949440155905  0.0007834258359288384  0.9994936855602566  1.0000
  Au  Au24      1.0  0.007126594892512476  0.005783425937889285  0.9992589203987797  1.0000
