data_image0
_chemical_formula_structural       HSn12Rh24Sn12Rh24
_chemical_formula_sum              "H1 Sn24 Rh48"
_cell_length_a       8.64061450958252
_cell_length_b       13.858100349010096
_cell_length_c       109.51132202148438
_cell_angle_alpha    88.7039654694154
_cell_angle_beta     90.0
_cell_angle_gamma    90.0

_space_group_name_H-M_alt    "P 1"
_space_group_IT_number       1

loop_
  _space_group_symop_operation_xyz
  'x, y, z'

loop_
  _atom_site_type_symbol
  _atom_site_label
  _atom_site_symmetry_multiplicity
  _atom_site_fract_x
  _atom_site_fract_y
  _atom_site_fract_z
  _atom_site_occupancy
  H   H1        1.0  0.0012499986548519533  0.009449694912509016  2.0937653571610768e-05  1.0000
  Sn  Sn1       1.0  0.0012500026428710024  0.0030939952860440235  0.9997516498732761  1.0000
  Sn  Sn2       1.0  0.001250001888380912  0.009693997910797647  0.9991573857293583  1.0000
  Sn  Sn3       1.0  0.001250001888380912  0.006360664061203972  0.9994580495076008  1.0000
  Sn  Sn4       1.0  0.001250001888380912  0.0023411763884167974  0.9991839364287699  1.0000
  Sn  Sn5       1.0  0.001250001888380912  0.009007843280947364  0.9994846006103756  1.0000
  Sn  Sn6       1.0  0.0012500025350867037  0.0056968366156133375  0.9997891018709317  1.0000
  Sn  Sn7       1.0  0.0037500015693393883  0.0036468383201329006  0.9995171631820402  1.0000
  Sn  Sn8       1.0  0.0037499968268302486  0.00030600276410519626  0.999841543046675  1.0000
  Sn  Sn9       1.0  0.0037500015693393883  0.006980171631955387  0.9992164988610587  1.0000
  Sn  Sn10      1.0  0.0037500015693393883  0.004332992412211994  0.9991899483025621  1.0000
  Sn  Sn11      1.0  0.0037500015693393883  0.000999659100389508  0.9994906120792654  1.0000
  Sn  Sn12      1.0  0.0037500015693393883  0.0076384896117061415  0.9997854379956468  1.0000
  Rh  Rh1       1.0  0.0037500015693393883  0.0024734522368665777  0.9993253456107011  1.0000
  Rh  Rh2       1.0  0.0037500015693393883  0.009140119398282739  0.9996260097915372  1.0000
  Rh  Rh3       1.0  0.003750002431613777  0.00597170491501873  0.9999234616384657  1.0000
  Rh  Rh4       1.0  0.001250001888380912  0.003945544671955788  0.9993332804655546  1.0000
  Rh  Rh5       1.0  0.001250001888380912  0.0006122113601333026  0.9996339442422577  1.0000
  Rh  Rh6       1.0  0.0012500014572437174  0.007353984452578872  0.9999310167510427  1.0000
  Rh  Rh7       1.0  0.001250001888380912  0.005791645676381585  0.9992153183929644  1.0000
  Rh  Rh8       1.0  0.001250001888380912  0.0024583123645590993  0.9995159821696675  1.0000
  Rh  Rh9       1.0  0.0012499990859891478  0.009120716613753424  0.9998150991943018  1.0000
  Rh  Rh10      1.0  0.0012500013494594188  0.004196449080485263  0.9999381580163461  1.0000
  Rh  Rh11      1.0  0.001250001888380912  0.0008673831847183291  0.9993492028975266  1.0000
  Rh  Rh12      1.0  0.001250001888380912  0.007534050144470295  0.9996498670789399  1.0000
  Rh  Rh13      1.0  0.0012499974692246683  0.0014192815564908587  0.9998636448703492  1.0000
  Rh  Rh14      1.0  0.001250001888380912  0.007981241843947027  0.9992795435218194  1.0000
  Rh  Rh15      1.0  0.001250001888380912  0.004647907994353351  0.9995802073000617  1.0000
  Rh  Rh16      1.0  0.0037500015693393883  0.005359594386983521  0.9993950053895793  1.0000
  Rh  Rh17      1.0  0.0037500015693393883  0.002026260671832643  0.9996956691674368  1.0000
  Rh  Rh18      1.0  0.0037500002759278048  0.008649938807661635  0.9999752420535589  1.0000
  Rh  Rh19      1.0  0.0037500015693393883  0.0008825230570258077  0.9991585668828384  1.0000
  Rh  Rh20      1.0  0.0037500015693393883  0.007549190016777773  0.9994592305199733  1.0000
  Rh  Rh21      1.0  0.003750002431613777  0.004310042220028919  0.999769171904935  1.0000
  Rh  Rh22      1.0  0.0037500015693393883  0.0027470019213144898  0.999918954375523  1.0000
  Rh  Rh23      1.0  0.0037500015693393883  0.009395290752317974  0.9993412684481529  1.0000
  Rh  Rh24      1.0  0.0037500015693393883  0.006061957440495489  0.999641932224856  1.0000
  Sn  Sn13      1.0  0.006250002328140851  0.0030939952860440235  0.9997516498732761  1.0000
  Sn  Sn14      1.0  0.006250001897003656  0.009693997910797647  0.9991573857293583  1.0000
  Sn  Sn15      1.0  0.006250001897003656  0.006360664061203972  0.9994580495076008  1.0000
  Sn  Sn16      1.0  0.006250001897003656  0.0023411763884167974  0.9991839364287699  1.0000
  Sn  Sn17      1.0  0.006250001897003656  0.009007843280947364  0.9994846006103756  1.0000
  Sn  Sn18      1.0  0.006250002328140851  0.0056968366156133375  0.9997891018709317  1.0000
  Sn  Sn19      1.0  0.00875000179353073  0.0036468383201329006  0.9995171631820402  1.0000
  Sn  Sn20      1.0  0.008749996619884395  0.00030600276410519626  0.999841543046675  1.0000
  Sn  Sn21      1.0  0.00875000179353073  0.006980171631955387  0.9992164988610587  1.0000
  Sn  Sn22      1.0  0.00875000179353073  0.004332992412211994  0.9991899483025621  1.0000
  Sn  Sn23      1.0  0.00875000179353073  0.000999659100389508  0.9994906120792654  1.0000
  Sn  Sn24      1.0  0.00875000093125634  0.0076384896117061415  0.9997854379956468  1.0000
  Rh  Rh25      1.0  0.00875000179353073  0.0024734522368665777  0.9993253456107011  1.0000
  Rh  Rh26      1.0  0.00875000179353073  0.009140119398282739  0.9996260097915372  1.0000
  Rh  Rh27      1.0  0.00875000179353073  0.00597170491501873  0.9999234616384657  1.0000
  Rh  Rh28      1.0  0.006250001897003656  0.003945544671955788  0.9993332804655546  1.0000
  Rh  Rh29      1.0  0.006250001897003656  0.0006122113601333026  0.9996339442422577  1.0000
  Rh  Rh30      1.0  0.0062500014658664615  0.007353984452578872  0.9999310167510427  1.0000
  Rh  Rh31      1.0  0.006250001897003656  0.005791645676381585  0.9992153183929644  1.0000
  Rh  Rh32      1.0  0.006250001897003656  0.0024583123645590993  0.9995159821696675  1.0000
  Rh  Rh33      1.0  0.006249998879043294  0.009120716613753424  0.9998150991943018  1.0000
  Rh  Rh34      1.0  0.006250001034729267  0.004196449080485263  0.9999381580163461  1.0000
  Rh  Rh35      1.0  0.006250001897003656  0.0008673831847183291  0.9993492028975266  1.0000
  Rh  Rh36      1.0  0.006250001897003656  0.007534050144470295  0.9996498670789399  1.0000
  Rh  Rh37      1.0  0.006249997154494516  0.0014192815564908587  0.9998636448703492  1.0000
  Rh  Rh38      1.0  0.006250001897003656  0.007981241843947027  0.9992795435218194  1.0000
  Rh  Rh39      1.0  0.006250001897003656  0.004647907994353351  0.9995802073000617  1.0000
  Rh  Rh40      1.0  0.00875000179353073  0.005359594386983521  0.9993950053895793  1.0000
  Rh  Rh41      1.0  0.00875000179353073  0.002026260671832643  0.9996956691674368  1.0000
  Rh  Rh42      1.0  0.008750000068981951  0.008649938807661635  0.9999752420535589  1.0000
  Rh  Rh43      1.0  0.00875000179353073  0.0008825230570258077  0.9991585668828384  1.0000
  Rh  Rh44      1.0  0.00875000179353073  0.007549190016777773  0.9994592305199733  1.0000
  Rh  Rh45      1.0  0.00875000179353073  0.004310042220028919  0.999769171904935  1.0000
  Rh  Rh46      1.0  0.00875000179353073  0.0027470019213144898  0.999918954375523  1.0000
  Rh  Rh47      1.0  0.00875000179353073  0.009395290752317974  0.9993412684481529  1.0000
  Rh  Rh48      1.0  0.00875000179353073  0.006061957440495489  0.999641932224856  1.0000
