data_image0
_chemical_formula_structural       COAs4Sn4As4Sn4As4Sn4As4Sn4
_chemical_formula_sum              "C1 O1 As16 Sn16"
_cell_length_a       8.272157669067383
_cell_length_b       8.272157669067383
_cell_length_c       105.09579467773438
_cell_angle_alpha    90.0
_cell_angle_beta     90.0
_cell_angle_gamma    90.0

_space_group_name_H-M_alt    "P 1"
_space_group_IT_number       1

loop_
  _space_group_symop_operation_xyz
  'x, y, z'

loop_
  _atom_site_type_symbol
  _atom_site_label
  _atom_site_symmetry_multiplicity
  _atom_site_fract_x
  _atom_site_fract_y
  _atom_site_fract_z
  _atom_site_occupancy
  C   C1        1.0  0.0025000542480556227  0.0025000051609058395  0.0001648069152375922  1.0000
  O   O1        1.0  0.0025000542480556227  0.0025000051609058395  0.0002789881224956654  1.0000
  As  As1       1.0  6.580000580616543e-08  0.009999997225900526  0.9996970879637238  1.0000
  As  As2       1.0  0.0025000542480556227  0.0025000051609058395  0.0  1.0000
  As  As3       1.0  5.7600004163595124e-08  3.200000112011263e-09  0.9991276377908542  1.0000
  As  As4       1.0  0.0025000576256118006  0.002500003359542545  0.9994059220853385  1.0000
  Sn  Sn1       1.0  0.009999943185001681  5.9100004128862584e-08  0.9999622955761316  1.0000
  Sn  Sn2       1.0  0.002500112567192292  0.0024999569744377035  0.9997258473631002  1.0000
  Sn  Sn3       1.0  5.7600004163595124e-08  3.200000112011263e-09  0.9994059220853385  1.0000
  Sn  Sn4       1.0  0.0025000576256118006  0.002500003359542545  0.9991276377908542  1.0000
  As  As5       1.0  6.580000580616543e-08  0.004999997261927792  0.9996970879637238  1.0000
  As  As6       1.0  0.0025000542480556227  0.007500005350048985  0.0  1.0000
  As  As7       1.0  5.7600004163595124e-08  0.005000003566699323  0.9991276377908542  1.0000
  As  As8       1.0  0.0025000576256118006  0.0075000035486856905  0.9994059220853385  1.0000
  Sn  Sn5       1.0  0.009999943185001681  0.005000059408961462  0.9999622955761316  1.0000
  Sn  Sn6       1.0  0.002500112567192292  0.007499957163580849  0.9997258473631002  1.0000
  Sn  Sn7       1.0  5.7600004163595124e-08  0.005000003566699323  0.9994059220853385  1.0000
  Sn  Sn8       1.0  0.0025000576256118006  0.0075000035486856905  0.9991276377908542  1.0000
  As  As9       1.0  0.005000066164073818  0.009999997225900526  0.9996970879637238  1.0000
  As  As10      1.0  0.007500054437198768  0.0025000051609058395  0.0  1.0000
  As  As11      1.0  0.005000058057938991  3.200000112011263e-09  0.9991276377908542  1.0000
  As  As12      1.0  0.007500058039925358  0.002500003359542545  0.9994059220853385  1.0000
  Sn  Sn9       1.0  0.004999942770688124  5.9100004128862584e-08  0.9999622955761316  1.0000
  Sn  Sn10      1.0  0.0075001129815058494  0.0024999569744377035  0.9997258473631002  1.0000
  Sn  Sn11      1.0  0.005000058057938991  3.200000112011263e-09  0.9994059220853385  1.0000
  Sn  Sn12      1.0  0.007500058039925358  0.002500003359542545  0.9991276377908542  1.0000
  As  As13      1.0  0.005000066164073818  0.004999997261927792  0.9996970879637238  1.0000
  As  As14      1.0  0.007500054437198768  0.007500005350048985  0.0  1.0000
  As  As15      1.0  0.005000058057938991  0.005000003566699323  0.9991276377908542  1.0000
  As  As16      1.0  0.007500058039925358  0.0075000035486856905  0.9994059220853385  1.0000
  Sn  Sn13      1.0  0.004999942770688124  0.005000059408961462  0.9999622955761316  1.0000
  Sn  Sn14      1.0  0.0075001129815058494  0.007499957163580849  0.9997258473631002  1.0000
  Sn  Sn15      1.0  0.005000058057938991  0.005000003566699323  0.9994059220853385  1.0000
  Sn  Sn16      1.0  0.007500058039925358  0.0075000035486856905  0.9991276377908542  1.0000
