data_image0
_chemical_formula_structural       HSi6Ni6Si6Ni6
_chemical_formula_sum              "H1 Si12 Ni12"
_cell_length_a       6.922946512290825
_cell_length_b       5.643429657449061
_cell_length_c       101.40520477294922
_cell_angle_alpha    111.46802150188107
_cell_angle_beta     104.29795339367212
_cell_angle_gamma    61.682735234805385

_space_group_name_H-M_alt    "P 1"
_space_group_IT_number       1

loop_
  _space_group_symop_operation_xyz
  'x, y, z'

loop_
  _atom_site_type_symbol
  _atom_site_label
  _atom_site_symmetry_multiplicity
  _atom_site_fract_x
  _atom_site_fract_y
  _atom_site_fract_z
  _atom_site_occupancy
  H   H1        1.0  0.006685700439417898  0.0058221742466417065  0.0003290039212355637  1.0000
  Si  Si1       1.0  0.003915087203787896  0.008399617946209106  0.9995728476730066  1.0000
  Si  Si2       1.0  0.0072484200928743855  0.008399617946209106  0.9994253713872453  1.0000
  Si  Si3       1.0  0.0005817537593928513  0.008399617946209106  0.9997203239494052  1.0000
  Si  Si4       1.0  0.006206798651316752  0.001524483603622538  0.9996926699393658  1.0000
  Si  Si5       1.0  0.009540131540403242  0.001524483603622538  0.999545193947498  1.0000
  Si  Si6       1.0  0.002873465206921707  0.001524483603622538  0.9993977175925541  1.0000
  Ni  Ni1       1.0  0.005583849678564906  0.0033933305218780754  0.9994990168269328  1.0000
  Ni  Ni2       1.0  0.008917183678268504  0.0033933305218780754  0.999793969183107  1.0000
  Ni  Ni3       1.0  0.002250516234169861  0.0033933305218780754  0.9996464931033314  1.0000
  Ni  Ni4       1.0  0.004538036111211997  0.006530771223936802  0.99976650078833  1.0000
  Ni  Ni5       1.0  0.007871370110915595  0.006530771223936802  0.9996190248151874  1.0000
  Ni  Ni6       1.0  0.0012047026668169523  0.006530771223936802  0.9994715484415183  1.0000
  Si  Si7       1.0  0.00388122724107011  0.008484080448175836  1.9929219542957092e-05  1.0000
  Si  Si8       1.0  0.0072484200928743855  0.008399617946209106  0.9998678000104555  1.0000
  Si  Si9       1.0  0.00044892479543514973  0.008389523241842884  0.0001672036405058854  1.0000
  Si  Si10      1.0  0.0060020691518481726  0.0015358985490379776  0.00013393181157784117  1.0000
  Si  Si11      1.0  0.009551075999858431  0.0015159194303145586  0.9999878184054306  1.0000
  Si  Si12      1.0  0.002873465206921707  0.001524483603622538  0.9998401462157644  1.0000
  Ni  Ni7       1.0  0.005599895382778885  0.003307005395264754  0.999931849513706  1.0000
  Ni  Ni8       1.0  0.008596830653192616  0.003190167443119833  0.0002099215141077971  1.0000
  Ni  Ni9       1.0  0.0020993165725981455  0.0033835031386416875  8.296621143235373e-05  1.0000
  Ni  Ni10      1.0  0.004263553274288992  0.0063278262745169065  0.0001781430639996676  1.0000
  Ni  Ni11      1.0  0.007765071222527651  0.006595880773609602  5.941089701124131e-05  1.0000
  Ni  Ni12      1.0  0.0012047026668169523  0.006530771223936802  0.9999139770647285  1.0000
