data_image0
_chemical_formula_structural       HAl2Re4Al2Re4Al2Re4Al2Re4Al2Re4Al2Re4
_chemical_formula_sum              "H1 Al12 Re24"
_cell_length_a       6.019141674041748
_cell_length_b       9.675868034362793
_cell_length_c       100.09571075439453
_cell_angle_alpha    90.0
_cell_angle_beta     90.0
_cell_angle_gamma    90.0

_space_group_name_H-M_alt    "P 1"
_space_group_IT_number       1

loop_
  _space_group_symop_operation_xyz
  'x, y, z'

loop_
  _atom_site_type_symbol
  _atom_site_label
  _atom_site_symmetry_multiplicity
  _atom_site_fract_x
  _atom_site_fract_y
  _atom_site_fract_z
  _atom_site_occupancy
  H   H1        1.0  0.0008333349889101727  0.004999920980879633  6.721798422911422e-05  1.0000
  Al  Al1       1.0  5.500000254477435e-10  1.664999990883092e-08  0.9994088692748982  1.0000
  Al  Al2       1.0  0.0025000007117433145  0.005000016462958424  0.9992585346790277  1.0000
  Re  Re1       1.0  5.500000254477435e-10  0.0033113631534091217  0.9994088692748982  1.0000
  Re  Re2       1.0  0.0025000007117433145  0.0016886700574139284  0.9992585346790277  1.0000
  Re  Re3       1.0  0.0025000007117433145  0.00831136306100711  0.9992585346790277  1.0000
  Re  Re4       1.0  5.500000254477435e-10  0.006688669772507726  0.9994088692748982  1.0000
  Al  Al3       1.0  5.500000254477435e-10  1.664999990883092e-08  0.9997095384666395  1.0000
  Al  Al4       1.0  0.0025000007117433145  0.005000016462958424  0.9995592038707688  1.0000
  Re  Re5       1.0  5.500000254477435e-10  0.0033113631534091217  0.9997095384666395  1.0000
  Re  Re6       1.0  0.0025000007117433145  0.0016886700574139284  0.9995592038707688  1.0000
  Re  Re7       1.0  0.0025000007117433145  0.00831136306100711  0.9995592038707688  1.0000
  Re  Re8       1.0  5.500000254477435e-10  0.006688669772507726  0.9997095384666395  1.0000
  Al  Al5       1.0  0.009999999752437108  0.00999998287482716  0.0  1.0000
  Al  Al6       1.0  0.0025000014853773516  0.004999832813960106  0.9998384781868855  1.0000
  Re  Re9       1.0  0.009999999752437108  0.003650070812589698  0.9999969624743088  1.0000
  Re  Re10      1.0  0.002500000092836085  0.0017469499312553673  0.9998650745498483  1.0000
  Re  Re11      1.0  0.0025000007117433145  0.00825301196061496  0.9998650721679423  1.0000
  Re  Re12      1.0  3.850000067464968e-09  0.006349858931080715  0.9999969505647786  1.0000
  Al  Al7       1.0  0.005000000804579399  1.664999990883092e-08  0.9994088692748982  1.0000
  Al  Al8       1.0  0.007500000742688676  0.005000016462958424  0.9992585346790277  1.0000
  Re  Re13      1.0  0.005000000804579399  0.0033113631534091217  0.9994088692748982  1.0000
  Re  Re14      1.0  0.007500000742688676  0.0016886700574139284  0.9992585346790277  1.0000
  Re  Re15      1.0  0.007500000742688676  0.00831136306100711  0.9992585346790277  1.0000
  Re  Re16      1.0  0.005000000804579399  0.006688669772507726  0.9994088692748982  1.0000
  Al  Al9       1.0  0.005000000804579399  1.664999990883092e-08  0.9997095384666395  1.0000
  Al  Al10      1.0  0.007500000742688676  0.005000016462958424  0.9995592038707688  1.0000
  Re  Re17      1.0  0.005000000804579399  0.0033113631534091217  0.9997095384666395  1.0000
  Re  Re18      1.0  0.007500000742688676  0.0016886700574139284  0.9995592038707688  1.0000
  Re  Re19      1.0  0.007500000742688676  0.00831136306100711  0.9995592038707688  1.0000
  Re  Re20      1.0  0.005000000804579399  0.006688669772507726  0.9997095384666395  1.0000
  Al  Al11      1.0  0.004999999257311325  0.00999998287482716  0.0  1.0000
  Al  Al12      1.0  0.007500001980503135  0.004999832813960106  0.9998384781868855  1.0000
  Re  Re21      1.0  0.004999999566764939  0.003650070812589698  0.9999969624743088  1.0000
  Re  Re22      1.0  0.007500000123781447  0.0017469499312553673  0.9998650745498483  1.0000
  Re  Re23      1.0  0.007500000742688676  0.00825301196061496  0.9998650721679423  1.0000
  Re  Re24      1.0  0.005000003899115547  0.006349858931080715  0.9999969505647786  1.0000
