data_image0
_chemical_formula_structural       COAu20Ca10Na10
_chemical_formula_sum              "C1 O1 Au20 Ca10 Na10"
_cell_length_a       15.469318686832105
_cell_length_b       5.156439304351807
_cell_length_c       106.8243408203125
_cell_angle_alpha    90.0
_cell_angle_beta     81.95053284990959
_cell_angle_gamma    90.0

_space_group_name_H-M_alt    "P 1"
_space_group_IT_number       1

loop_
  _space_group_symop_operation_xyz
  'x, y, z'

loop_
  _atom_site_type_symbol
  _atom_site_label
  _atom_site_symmetry_multiplicity
  _atom_site_fract_x
  _atom_site_fract_y
  _atom_site_fract_z
  _atom_site_occupancy
  C   C1        1.0  0.009038180170254024  3.800000133808714e-09  0.9999597763610237  1.0000
  O   O1        1.0  0.009038180170254024  3.800000133808714e-09  7.210997920380605e-05  1.0000
  Au  Au1       1.0  0.008999999424068652  0.005000002398547343  0.9995712323365673  1.0000
  Au  Au2       1.0  0.004323680080533259  0.004999979280018739  0.9997905920033467  1.0000
  Au  Au3       1.0  0.0036666664500438393  0.005000002398547343  0.9993414199186755  1.0000
  Au  Au4       1.0  0.002999999889094301  0.005000002398547343  0.9988817952961886  1.0000
  Au  Au5       1.0  0.00833333261990486  0.005000002398547343  0.9991116077190123  1.0000
  Au  Au6       1.0  0.009196525295652024  3.800000133808714e-09  0.9997960228299866  1.0000
  Au  Au7       1.0  0.00799999970425147  2.200000004943377e-09  0.9988817954003711  1.0000
  Au  Au8       1.0  0.003999999852125735  2.200000004943377e-09  0.9995712327854218  1.0000
  Au  Au9       1.0  0.0033333332911761964  2.200000004943377e-09  0.9991116076049662  1.0000
  Au  Au10      1.0  0.00866666650841526  2.200000004943377e-09  0.9993414200179263  1.0000
  Au  Au11      1.0  0.0016844474315391962  0.00999999540519244  0.9996798767010528  1.0000
  Au  Au12      1.0  0.00033333334127833226  2.200000004943377e-09  0.9987668890884757  1.0000
  Au  Au13      1.0  0.006333333180270497  2.200000004943377e-09  0.9994563261226896  1.0000
  Au  Au14      1.0  0.005666666376106706  2.200000004943377e-09  0.9989967015051345  1.0000
  Au  Au15      1.0  0.0009999999022278707  2.200000004943377e-09  0.9992265137109625  1.0000
  Au  Au16      1.0  0.001333333365113329  0.005000002398547343  0.9994563265764759  1.0000
  Au  Au17      1.0  0.006575155760633468  0.004999972416705559  0.9996858637237437  1.0000
  Au  Au18      1.0  0.005999999778188602  0.005000002398547343  0.9992265138139121  1.0000
  Au  Au19      1.0  0.005333332974024812  0.005000002398547343  0.9987668889173726  1.0000
  Au  Au20      1.0  0.0006666666217531015  0.005000002398547343  0.9989967013997191  1.0000
  Ca  Ca1       1.0  0.009499999283977241  2.200000004943377e-09  0.9990541543876462  1.0000
  Ca  Ca2       1.0  0.00483333311411622  2.200000004943377e-09  0.9992839671452781  1.0000
  Ca  Ca3       1.0  0.00416666630995243  2.200000004943377e-09  0.9988243422487387  1.0000
  Ca  Ca4       1.0  0.00016666664023738459  2.200000004943377e-09  0.9995137793511061  1.0000
  Ca  Ca5       1.0  0.005508075604313869  0.009999987458198231  0.9997398620292205  1.0000
  Ca  Ca6       1.0  0.002166666627103815  0.005000002398547343  0.9991690609363323  1.0000
  Ca  Ca7       1.0  0.007499999844342879  0.005000002398547343  0.9993988733492923  1.0000
  Ca  Ca8       1.0  0.006833333040179088  0.005000002398547343  0.9989392484527528  1.0000
  Ca  Ca9       1.0  0.002849126548741662  0.004999996257688182  0.9996183849206842  1.0000
  Ca  Ca10      1.0  0.008066559175825428  0.005000007455725475  0.9998364297903337  1.0000
  Na  Na1       1.0  0.001833333346629046  2.200000004943377e-09  0.9989392483461045  1.0000
  Na  Na2       1.0  0.007166666442260983  2.200000004943377e-09  0.9991690610405147  1.0000
  Na  Na3       1.0  0.00311106416384232  0.009999997572554495  0.9998562563342671  1.0000
  Na  Na4       1.0  0.002499999785971458  2.200000004943377e-09  0.9993988732500416  1.0000
  Na  Na5       1.0  0.007793661110444207  0.009999998295008515  0.9996219815269647  1.0000
  Na  Na6       1.0  0.009833333172487642  0.005000002398547343  0.999283967244529  1.0000
  Na  Na7       1.0  0.005166666516198116  0.005000002398547343  0.9995137794540557  1.0000
  Na  Na8       1.0  0.004499999712034326  0.005000002398547343  0.9990541548365006  1.0000
  Na  Na9       1.0  0.0005173593379711165  0.005000001314866314  0.9997594910536162  1.0000
  Na  Na10      1.0  0.009166666368323851  0.005000002398547343  0.9988243420690051  1.0000
