data_image0
_chemical_formula_structural       COCaNi5CaNi5
_chemical_formula_sum              "C1 O1 Ca2 Ni10"
_cell_length_a       4.971517086029053
_cell_length_b       4.9715169858703945
_cell_length_c       101.8660888671875
_cell_angle_alpha    90.0
_cell_angle_beta     90.0
_cell_angle_gamma    120.0000006664408

_space_group_name_H-M_alt    "P 1"
_space_group_IT_number       1

loop_
  _space_group_symop_operation_xyz
  'x, y, z'

loop_
  _atom_site_type_symbol
  _atom_site_label
  _atom_site_symmetry_multiplicity
  _atom_site_fract_x
  _atom_site_fract_y
  _atom_site_fract_z
  _atom_site_occupancy
  C   C1        1.0  0.003333329161373358  0.008333277149901586  0.00016887597372697237  1.0000
  O   O1        1.0  0.003333329161373358  0.008333277149901586  0.0002866779277643031  1.0000
  Ca  Ca1       1.0  0.0016666666860812927  4.300000197979624e-09  0.9996135089839439  1.0000
  Ni  Ni1       1.0  0.006666667038264824  4.300000197979624e-09  0.9994179942053846  1.0000
  Ni  Ni2       1.0  0.006666666971981475  0.005000004706948696  0.9994179942053846  1.0000
  Ni  Ni3       1.0  0.001666666807129609  0.005000004706948696  0.9994179942053846  1.0000
  Ni  Ni4       1.0  0.005000000142132402  0.006666671212102417  0.9996135089839439  1.0000
  Ni  Ni5       1.0  0.008333333772850232  0.0033333377691710142  0.9996135089839439  1.0000
  Ca  Ca2       1.0  0.0016666725173968677  0.00999999643517856  0.0  1.0000
  Ni  Ni6       1.0  0.006666167885658076  0.009998996208580512  0.9998062695675981  1.0000
  Ni  Ni7       1.0  0.006666157087152342  0.005000480593305899  0.9998062648865785  1.0000
  Ni  Ni8       1.0  0.001667641543841587  0.005000471075578755  0.9998062695675981  1.0000
  Ni  Ni9       1.0  0.004999985776369534  0.00666655743200065  0.9999976881614467  1.0000
  Ni  Ni10      1.0  0.008333333026312579  0.0033334426804815793  0.9999976577348194  1.0000
