data_image0
_chemical_formula_structural       COGa9Pt6Ga9Pt6
_chemical_formula_sum              "C1 O1 Ga18 Pt12"
_cell_length_a       5.3598151206970215
_cell_length_b       11.412894691413893
_cell_length_c       39.8043212890625
_cell_angle_alpha    100.8933946499609
_cell_angle_beta     90.0
_cell_angle_gamma    90.0

_space_group_name_H-M_alt    "P 1"
_space_group_IT_number       1

loop_
  _space_group_symop_operation_xyz
  'x, y, z'

loop_
  _atom_site_type_symbol
  _atom_site_label
  _atom_site_symmetry_multiplicity
  _atom_site_fract_x
  _atom_site_fract_y
  _atom_site_fract_z
  _atom_site_occupancy
  C   C1        1.0  0.0026497593751998935  0.0051967151662325  0.0006934073848773751  1.0000
  O   O1        1.0  0.0026497593751998935  0.0051967151662325  0.0009948820521434656  1.0000
  Ga  Ga1       1.0  0.0008334101550368062  0.00711299009955459  0.9997747557474168  1.0000
  Ga  Ga2       1.0  0.0009121406433226661  0.0038216222058268788  0.0002070781722329855  1.0000
  Ga  Ga3       1.0  0.0007846188107282186  0.00047506152271378137  0.9994277904037838  1.0000
  Ga  Ga4       1.0  0.004387378107077121  0.005987674048003331  0.0002934839943243864  1.0000
  Ga  Ga5       1.0  0.0043489447823541385  0.0026972837436433357  0.9995482035924826  1.0000
  Ga  Ga6       1.0  0.004263696288135055  0.009524938076743822  0.9999765209746955  1.0000
  Ga  Ga7       1.0  0.007429619388084727  0.0081209156509009  0.00034417507059842305  1.0000
  Ga  Ga8       1.0  0.007270284755221524  0.004874620576990809  0.9996791195246437  1.0000
  Ga  Ga9       1.0  0.007256392974345009  0.001570066029809619  3.1682345298979316e-05  1.0000
  Pt  Pt1       1.0  0.009215380817424942  0.005931447867544989  0.0002403389214965215  1.0000
  Pt  Pt2       1.0  0.009128108711857383  0.0026972837436433357  0.9995482035924826  1.0000
  Pt  Pt3       1.0  0.00912053137683383  0.009406697961297837  0.9999109808051972  1.0000
  Pt  Pt4       1.0  0.0026173030540115887  0.008090051615548566  0.00033917311268863  1.0000
  Pt  Pt5       1.0  0.0025619183787208705  0.004879343985666515  0.999643959851097  1.0000
  Pt  Pt6       1.0  0.002439634460628751  0.0016687074894548787  1.6143256364479502e-05  1.0000
  Ga  Ga10      1.0  0.0007846188107282186  0.007141728102402362  0.9987053112964068  1.0000
  Ga  Ga11      1.0  0.0007846188107282186  0.0038083946671329276  0.9990665508422153  1.0000
  Ga  Ga12      1.0  0.0007846188107282186  0.00047506152271378137  0.9983440717348134  1.0000
  Ga  Ga13      1.0  0.0043489447823541385  0.006030616846512441  0.9991869640286627  1.0000
  Ga  Ga14      1.0  0.0043489447823541385  0.0026972837436433357  0.9984644849235121  1.0000
  Ga  Ga15      1.0  0.0043489447823541385  0.009363949949381545  0.9988257244648427  1.0000
  Ga  Ga16      1.0  0.007220292554135561  0.008252839358292283  0.9993073772331215  1.0000
  Ga  Ga17      1.0  0.007220292554135561  0.0049195059230228485  0.9985848981099595  1.0000
  Ga  Ga18      1.0  0.007220292554135561  0.001586172653953579  0.9989461376647737  1.0000
  Pt  Pt7       1.0  0.009128108711857383  0.006030616846512441  0.9991869640286627  1.0000
  Pt  Pt8       1.0  0.009128108711857383  0.0026972837436433357  0.9984644849235121  1.0000
  Pt  Pt9       1.0  0.009128108711857383  0.009363949949381545  0.9988257244648427  1.0000
  Pt  Pt10      1.0  0.0024411284508721125  0.008252839358292283  0.9993073772331215  1.0000
  Pt  Pt11      1.0  0.0024411284508721125  0.0049195059230228485  0.9985848981099595  1.0000
  Pt  Pt12      1.0  0.0024411284508721125  0.001586172653953579  0.9989461376647737  1.0000
