data_image0
_chemical_formula_structural       COZn48Au16
_chemical_formula_sum              "C1 O1 Zn48 Au16"
_cell_length_a       11.40444278717041
_cell_length_b       8.064159393310547
_cell_length_c       104.21333312988281
_cell_angle_alpha    90.0
_cell_angle_beta     90.0
_cell_angle_gamma    90.0

_space_group_name_H-M_alt    "P 1"
_space_group_IT_number       1

loop_
  _space_group_symop_operation_xyz
  'x, y, z'

loop_
  _atom_site_type_symbol
  _atom_site_label
  _atom_site_symmetry_multiplicity
  _atom_site_fract_x
  _atom_site_fract_y
  _atom_site_fract_z
  _atom_site_occupancy
  C   C1        1.0  0.00019300196403111196  0.0016406373434758566  0.00012786992247125617  1.0000
  O   O1        1.0  0.00019300196403111196  0.0016406373434758566  0.0002430179976133739  1.0000
  Zn  Zn1       1.0  0.006882429385558717  0.007460603764195441  0.9999999988561032  1.0000
  Zn  Zn2       1.0  0.0019822746567796346  0.007461959144366219  0.999448902019298  1.0000
  Zn  Zn3       1.0  0.0039861753455199996  0.004178668479546314  0.9992296078676302  1.0000
  Zn  Zn4       1.0  0.00900433428733299  0.004135057020649763  0.9997715672574664  1.0000
  Zn  Zn5       1.0  0.004663609939226947  0.0058203193554334474  0.999922825292197  1.0000
  Zn  Zn6       1.0  0.009806998648442417  0.005820313811956267  0.9993590763857623  1.0000
  Zn  Zn7       1.0  0.007803097633049503  0.005820313811956267  0.9991397822340944  1.0000
  Zn  Zn8       1.0  0.0028030976330495026  0.005820313811956267  0.9996869503576279  1.0000
  Zn  Zn9       1.0  0.004663402188206223  0.008816413554455099  0.9989758452481615  1.0000
  Zn  Zn10      1.0  0.009663402188206223  0.008816413554455099  0.999523013371695  1.0000
  Zn  Zn11      1.0  0.00630504814074596  0.008816413554455099  0.999155496515233  1.0000
  Zn  Zn12      1.0  0.001305047814093411  0.008816413554455099  0.9997026646387666  1.0000
  Zn  Zn13      1.0  0.001305047814093411  0.007824214291196521  0.9989758452481615  1.0000
  Zn  Zn14      1.0  0.00630504814074596  0.007824214291196521  0.999523013371695  1.0000
  Zn  Zn15      1.0  0.004663402188206223  0.0038164133327160117  0.9997026646387666  1.0000
  Zn  Zn16      1.0  0.009663402188206223  0.0038164133327160117  0.999155496515233  1.0000
  Zn  Zn17      1.0  0.004663402188206223  0.007824214291196521  0.9997026646387666  1.0000
  Zn  Zn18      1.0  0.009663402188206223  0.007824214291196521  0.999155496515233  1.0000
  Zn  Zn19      1.0  0.006882405866575239  0.004180052501015861  0.9999999828415492  1.0000
  Zn  Zn20      1.0  0.0019822746567796346  0.004178668479546314  0.999448902019298  1.0000
  Zn  Zn21      1.0  0.0039861753455199996  0.007461959144366219  0.9992296078676302  1.0000
  Zn  Zn22      1.0  0.009004250010975526  0.007505541038051137  0.9997715615379829  1.0000
  Zn  Zn23      1.0  0.0061614523338148625  0.005820313811956267  0.9993194335011658  1.0000
  Zn  Zn24      1.0  0.0013614990091974906  0.0058203147358691296  0.9999238324932556  1.0000
  Zn  Zn25      1.0  0.0031653526959026794  0.005820313811956267  0.9989915595293002  1.0000
  Zn  Zn26      1.0  0.00816535269590268  0.005820313811956267  0.9995387276528338  1.0000
  Zn  Zn27      1.0  0.004663402188206223  0.0028242145314138654  0.9989758452481615  1.0000
  Zn  Zn28      1.0  0.009663402188206223  0.0028242145314138654  0.999523013371695  1.0000
  Zn  Zn29      1.0  0.00630504814074596  0.0028242145314138654  0.999155496515233  1.0000
  Zn  Zn30      1.0  0.001305047814093411  0.0028242145314138654  0.9997026646387666  1.0000
  Zn  Zn31      1.0  0.006963154376516975  0.009136159470435026  0.9997715832720204  1.0000
  Zn  Zn32      1.0  0.0019822746567796346  0.009178667777372538  0.9992296078676302  1.0000
  Zn  Zn33      1.0  0.004605837516228098  0.0008203150915755821  0.9999237478448986  1.0000
  Zn  Zn34      1.0  0.009806998648442417  0.0008203139944290567  0.9993194335011658  1.0000
  Zn  Zn35      1.0  0.0061614523338148625  0.0008203139944290567  0.9993590763857623  1.0000
  Zn  Zn36      1.0  0.0013015057571858335  0.0008203180365478346  0.9999233348981841  1.0000
  Zn  Zn37      1.0  0.006963201414483931  0.0025044517540241803  0.9997715827000722  1.0000
  Zn  Zn38      1.0  0.0019822746567796346  0.002461959615561779  0.9992296078676302  1.0000
  Zn  Zn39      1.0  0.00816535269590268  0.0008203139944290567  0.9991397822340944  1.0000
  Zn  Zn40      1.0  0.0031653526959026794  0.0008203139944290567  0.9996869503576279  1.0000
  Zn  Zn41      1.0  0.009084487636331708  0.009179685929348133  0.9999999805537558  1.0000
  Zn  Zn42      1.0  0.0039861753455199996  0.009178667777372538  0.999448902019298  1.0000
  Zn  Zn43      1.0  0.009084498089213253  0.0024609567081484325  0.0  1.0000
  Zn  Zn44      1.0  0.0039861753455199996  0.002461959615561779  0.999448902019298  1.0000
  Zn  Zn45      1.0  0.0028030976330495026  0.0008203139944290567  0.9989915595293002  1.0000
  Zn  Zn46      1.0  0.007803097633049503  0.0008203139944290567  0.9995387276528338  1.0000
  Zn  Zn47      1.0  0.001305047814093411  0.0038164133327160117  0.9989758452481615  1.0000
  Zn  Zn48      1.0  0.00630504814074596  0.0038164133327160117  0.999523013371695  1.0000
  Au  Au1       1.0  0.006878782636509407  0.0008203169394013092  0.99999626574917  1.0000
  Au  Au2       1.0  0.001734225001149817  0.0008203139944290567  0.9994760466883732  1.0000
  Au  Au3       1.0  0.004234225164476091  0.0008203139944290567  0.9992024629125806  1.0000
  Au  Au4       1.0  0.009283457583251975  0.0008203143986409345  0.9997414032730088  1.0000
  Au  Au5       1.0  0.0029836594022624218  0.0033190116768838126  0.9998786359901021  1.0000
  Au  Au6       1.0  0.007984225164476092  0.0033203139320649383  0.9993392549434641  1.0000
  Au  Au7       1.0  0.00298365972891497  0.00832161479213764  0.9998786359901021  1.0000
  Au  Au8       1.0  0.007984225164476092  0.00832031392282581  0.9993392549434641  1.0000
  Au  Au9       1.0  0.009091065765349534  0.005820320741302743  0.9999962142738178  1.0000
  Au  Au10      1.0  0.004234225164476091  0.005820313811956267  0.9994760466883732  1.0000
  Au  Au11      1.0  0.006684168274668278  0.0058203101163048125  0.9997414679031733  1.0000
  Au  Au12      1.0  0.001734225001149817  0.005820313811956267  0.9992024629125806  1.0000
  Au  Au13      1.0  0.005484225164476091  0.005820313811956267  0.9990656708816973  1.0000
  Au  Au14      1.0  0.00048422496031824843  0.005820313811956267  0.9996128390052308  1.0000
  Au  Au15      1.0  0.005484225164476091  0.0008203139944290567  0.9996128390052308  1.0000
  Au  Au16      1.0  0.00048422496031824843  0.0008203139944290567  0.9990656708816973  1.0000
