data_image0
_chemical_formula_structural       HAl6Au12Ti6
_chemical_formula_sum              "H1 Al6 Au12 Ti6"
_cell_length_a       7.955930425572923
_cell_length_b       6.495989799499512
_cell_length_c       104.98197937011719
_cell_angle_alpha    90.0
_cell_angle_beta     85.6522471080518
_cell_angle_gamma    114.09484179839647

_space_group_name_H-M_alt    "P 1"
_space_group_IT_number       1

loop_
  _space_group_symop_operation_xyz
  'x, y, z'

loop_
  _atom_site_type_symbol
  _atom_site_label
  _atom_site_symmetry_multiplicity
  _atom_site_fract_x
  _atom_site_fract_y
  _atom_site_fract_z
  _atom_site_occupancy
  H   H1        1.0  0.0020686337505047454  0.00585845266343475  2.381220349884006e-05  1.0000
  Al  Al1       1.0  0.0047983928064012854  0.007225290036372236  0.999498271105422  1.0000
  Al  Al2       1.0  0.0065393146249818745  0.003093693610578042  0.9997815954418451  1.0000
  Al  Al3       1.0  0.003131726126009021  0.0013919563635603762  0.9992205886724126  1.0000
  Al  Al4       1.0  0.0006317261697593623  0.0001419563854355467  0.9996371120890117  1.0000
  Al  Al5       1.0  0.002267370962887325  0.00595782126962604  0.999905882046641  1.0000
  Al  Al6       1.0  0.008965059507381945  0.0043086231080101565  0.9993594295537019  1.0000
  Au  Au1       1.0  0.003566043227939633  0.00908143533332164  0.9996935098850696  1.0000
  Au  Au2       1.0  0.005103653864626389  0.004892934271684296  0.9999707519707955  1.0000
  Au  Au3       1.0  0.001881726115714823  0.0032669563813522927  0.9994288502389568  1.0000
  Au  Au4       1.0  0.0035647160484668632  0.004133760107108902  0.9996935368137828  1.0000
  Au  Au5       1.0  0.005104233427971876  0.009858043534451915  0.9999706753999821  1.0000
  Au  Au6       1.0  0.001881726115714823  0.00826695671396802  0.9994288502389568  1.0000
  Au  Au7       1.0  0.009367951768536623  0.001924069071633898  0.9998516304937917  1.0000
  Au  Au8       1.0  0.006048392559340534  0.0003502895572871168  0.9992900092564759  1.0000
  Au  Au9       1.0  0.0077150592397327985  0.00618362294336128  0.9995676914056051  1.0000
  Au  Au10      1.0  0.00936827397693296  0.007096130904232065  0.9998512221259758  1.0000
  Au  Au11      1.0  0.006048392559340534  0.0053502897465339955  0.9992900092564759  1.0000
  Au  Au12      1.0  0.0077150592397327985  0.0011836228974832488  0.9995676914056051  1.0000
  Ti  Ti1       1.0  0.0006317261697593623  0.005141956718051274  0.9996371120890117  1.0000
  Ti  Ti2       1.0  0.002366148682115365  0.001007794347260117  0.9998961151265333  1.0000
  Ti  Ti3       1.0  0.008965059507381945  0.009308623386862567  0.9993594295537019  1.0000
  Ti  Ti4       1.0  0.0047983928064012854  0.002225289793362038  0.999498271105422  1.0000
  Ti  Ti5       1.0  0.0064839719872967294  0.008066886224528641  0.9997755408473612  1.0000
  Ti  Ti6       1.0  0.003131726126009021  0.006391956696176104  0.9992205886724126  1.0000
