data_image0
_chemical_formula_structural       COAs4Pd20
_chemical_formula_sum              "C1 O1 As4 Pd20"
_cell_length_a       5.6511077880859375
_cell_length_b       8.651687888470581
_cell_length_c       101.55194091796875
_cell_angle_alpha    90.0
_cell_angle_beta     90.0
_cell_angle_gamma    98.66839262461441

_space_group_name_H-M_alt    "P 1"
_space_group_IT_number       1

loop_
  _space_group_symop_operation_xyz
  'x, y, z'

loop_
  _atom_site_type_symbol
  _atom_site_label
  _atom_site_symmetry_multiplicity
  _atom_site_fract_x
  _atom_site_fract_y
  _atom_site_fract_z
  _atom_site_occupancy
  C   C1        1.0  0.008720381752089227  0.007884174128111994  4.6297631905240144e-05  1.0000
  O   O1        1.0  0.008720381752089227  0.007884174128111994  0.00016446341589299848  1.0000
  As  As1       1.0  0.007273342784769951  0.007126847735641828  0.9994877749271709  1.0000
  As  As2       1.0  0.0027264390529660697  0.0028731818824864175  0.9994877749271709  1.0000
  As  As3       1.0  0.002308646178509763  0.007191900905408759  0.9998731716050933  1.0000
  As  As4       1.0  0.007691118047620241  0.0028081014901751443  0.9998731704312183  1.0000
  Pd  Pd1       1.0  0.009636337979726801  0.008258853032756953  0.9996900406412446  1.0000
  Pd  Pd2       1.0  0.0003634439764617643  0.001741176585371293  0.9996900406412446  1.0000
  Pd  Pd3       1.0  0.009636337979726801  0.008258853032756953  0.9992855092130972  1.0000
  Pd  Pd4       1.0  0.0003634439764617643  0.001741176585371293  0.9992855092130972  1.0000
  Pd  Pd5       1.0  0.0014579870061579398  0.006479869777801317  0.9994877749271709  1.0000
  Pd  Pd6       1.0  0.008541794961581051  0.003520159622546574  0.9994877749271709  1.0000
  Pd  Pd7       1.0  0.002432538921994431  0.009931286813591168  0.9994877749271709  1.0000
  Pd  Pd8       1.0  0.007567243098883069  6.874275009199042e-05  0.9994877749271709  1.0000
  Pd  Pd9       1.0  1.1577589969432598e-07  0.0050001554951732904  0.0  1.0000
  Pd  Pd10      1.0  0.00999988445851248  0.0050000156801855425  0.9997303978784678  1.0000
  Pd  Pd11      1.0  0.004636337966542517  0.008258853032756953  0.9993016687770123  1.0000
  Pd  Pd12      1.0  0.005363444035997044  0.001741176585371293  0.9993016687770123  1.0000
  Pd  Pd13      1.0  0.004636337966542517  0.008258853032756953  0.9996738810773296  1.0000
  Pd  Pd14      1.0  0.005363444035997044  0.001741176585371293  0.9996738810773296  1.0000
  Pd  Pd15      1.0  0.00639172764701743  0.006510460077550713  0.9998755099641895  1.0000
  Pd  Pd16      1.0  0.0036080395367689565  0.0034895510292473793  0.9998755099641895  1.0000
  Pd  Pd17      1.0  0.007460770786358639  0.009950161401376511  0.999878536214064  1.0000
  Pd  Pd18      1.0  0.0025389978943444595  4.983905119828849e-05  0.999878536214064  1.0000
  Pd  Pd19      1.0  0.004999890836466239  0.005000014809064123  0.9996307769724933  1.0000
  Pd  Pd20      1.0  0.004999890836466239  0.005000014809064123  0.9993447728818486  1.0000
