data_image0
_chemical_formula_structural       HMn6Al18Si2
_chemical_formula_sum              "H1 Mn6 Al18 Si2"
_cell_length_a       7.517892360687256
_cell_length_b       7.51789249357297
_cell_length_c       100.67256927490234
_cell_angle_alpha    90.0
_cell_angle_beta     90.0
_cell_angle_gamma    119.99999941528506

_space_group_name_H-M_alt    "P 1"
_space_group_IT_number       1

loop_
  _space_group_symop_operation_xyz
  'x, y, z'

loop_
  _atom_site_type_symbol
  _atom_site_label
  _atom_site_symmetry_multiplicity
  _atom_site_fract_x
  _atom_site_fract_y
  _atom_site_fract_z
  _atom_site_occupancy
  H   H1        1.0  0.0033336254816040993  0.006667037272066923  0.00012237201556911505  1.0000
  Mn  Mn1       1.0  0.007618037612101546  0.008809212280441821  0.999482721618706  1.0000
  Mn  Mn2       1.0  0.001191325555163532  0.008809212280441821  0.999482721618706  1.0000
  Mn  Mn3       1.0  0.00879666693555096  0.007593134987898695  0.9998571236099749  1.0000
  Mn  Mn4       1.0  0.0024095904716212534  0.0012050416390249877  0.9998571478846154  1.0000
  Mn  Mn5       1.0  0.008796195677726973  0.0012044590157971739  0.9998571336750698  1.0000
  Mn  Mn6       1.0  0.001191325452971626  0.0023825000091091206  0.999482721618706  1.0000
  Al  Al1       1.0  0.00799699069282979  0.002003547013644016  0.9996241551477774  1.0000
  Al  Al2       1.0  0.00799699069282979  0.002003547013644016  0.9993412877936023  1.0000
  Al  Al3       1.0  0.0020034682767364497  0.007997068973453588  0.9997221335178175  1.0000
  Al  Al4       1.0  0.002003468401265544  0.004006785907859426  0.9997221335178175  1.0000
  Al  Al5       1.0  0.005993751583540395  0.007997068973453588  0.9997221335178175  1.0000
  Al  Al6       1.0  0.004006707386025846  0.002003547013644016  0.9993412877936023  1.0000
  Al  Al7       1.0  0.004574001699828051  0.009147852411816757  0.999482721618706  1.0000
  Al  Al8       1.0  0.005451465221188345  0.004546883218806821  0.9998764053714356  1.0000
  Al  Al9       1.0  0.00909574233134174  0.0045474170636107  0.9998764160285949  1.0000
  Al  Al10      1.0  0.007996990839150937  0.005993830365328642  0.9993412877936023  1.0000
  Al  Al11      1.0  0.004574001882912814  0.005426535864520154  0.999482721618706  1.0000
  Al  Al12      1.0  0.005451989780032253  0.0009051146253939718  0.99987639116189  1.0000
  Al  Al13      1.0  0.00188847957978173  0.003776576064578775  0.9999999786856815  1.0000
  Al  Al14      1.0  0.0008526849923114035  0.005426535864520154  0.999482721618706  1.0000
  Al  Al15      1.0  0.004006707386025846  0.002003547013644016  0.9996241551477774  1.0000
  Al  Al16      1.0  0.00622398523069272  0.008112169460691739  0.0  1.0000
  Al  Al17      1.0  0.0018884117289194521  0.008112366290930253  0.9999999905269695  1.0000
  Al  Al18      1.0  0.007996990839150937  0.005993830365328642  0.9996241551477774  1.0000
  Si  Si1       1.0  0.00999977019326241  0.009999691342721325  6.08417223333514e-05  1.0000
  Si  Si2       1.0  2.295000029988527e-07  3.0810001133303027e-07  0.9996731443327974  1.0000
