data_image0
_chemical_formula_structural       CONi4Sb8Ni4Sb8
_chemical_formula_sum              "C1 O1 Ni8 Sb16"
_cell_length_a       7.885036945343018
_cell_length_b       8.2923750774536
_cell_length_c       36.830501556396484
_cell_angle_alpha    101.61907305577236
_cell_angle_beta     90.0
_cell_angle_gamma    90.0

_space_group_name_H-M_alt    "P 1"
_space_group_IT_number       1

loop_
  _space_group_symop_operation_xyz
  'x, y, z'

loop_
  _atom_site_type_symbol
  _atom_site_label
  _atom_site_symmetry_multiplicity
  _atom_site_fract_x
  _atom_site_fract_y
  _atom_site_fract_z
  _atom_site_occupancy
  C   C1        1.0  0.004999999792121744  0.008270908227609562  0.0005982335472815509  1.0000
  O   O1        1.0  0.004999999792121744  0.008270908227609562  0.0009240503026683262  1.0000
  Ni  Ni1       1.0  1.99999989023983e-10  0.0053604270165478335  0.9995453480088506  1.0000
  Ni  Ni2       1.0  0.0  0.0003407335038715483  0.9984305950281588  1.0000
  Ni  Ni3       1.0  0.002499999896060872  0.005340733421316129  0.9984305947978461  1.0000
  Ni  Ni4       1.0  0.002499999896060872  0.00035605679293837235  0.999556206630752  1.0000
  Sb  Sb1       1.0  0.0  0.00465227488685578  0.00018950495683190007  1.0000
  Sb  Sb2       1.0  0.0  0.009659266560338222  0.9990832057300951  1.0000
  Sb  Sb3       1.0  0.0  0.006022200429059226  0.9989037326342793  1.0000
  Sb  Sb4       1.0  0.009999999584243488  0.0010305834411250268  4.6732880760897137e-05  1.0000
  Sb  Sb5       1.0  0.002499999896060872  0.00823929684034507  0.9982771627028332  1.0000
  Sb  Sb6       1.0  0.0024999996598355804  0.003279018004170127  0.9994088872450086  1.0000
  Sb  Sb7       1.0  0.002499999896060872  0.00244216977296658  0.9985840268824604  1.0000
  Sb  Sb8       1.0  0.0024999996598355804  0.007417432876353498  0.999702352473531  1.0000
  Ni  Ni5       1.0  0.005000000264572326  0.0053604270165478335  0.9995453480088506  1.0000
  Ni  Ni6       1.0  0.004999999792121744  0.0003407335038715483  0.9984305950281588  1.0000
  Ni  Ni7       1.0  0.007499999924407906  0.005340733421316129  0.9984305947978461  1.0000
  Ni  Ni8       1.0  0.007499999924407906  0.00035605679293837235  0.999556206630752  1.0000
  Sb  Sb9       1.0  0.004999999792121744  0.00465227488685578  0.00018950495683190007  1.0000
  Sb  Sb10      1.0  0.004999999792121744  0.009659266560338222  0.9990832057300951  1.0000
  Sb  Sb11      1.0  0.004999999792121744  0.006022200429059226  0.9989037326342793  1.0000
  Sb  Sb12      1.0  0.004999999792121744  0.0010305834411250268  4.6732880760897137e-05  1.0000
  Sb  Sb13      1.0  0.007499999924407906  0.00823929684034507  0.9982771627028332  1.0000
  Sb  Sb14      1.0  0.007499999451957324  0.003279018004170127  0.9994088872450086  1.0000
  Sb  Sb15      1.0  0.007499999924407906  0.00244216977296658  0.9985840268824604  1.0000
  Sb  Sb16      1.0  0.007499999451957324  0.007417432876353498  0.999702352473531  1.0000
