data_image0
_chemical_formula_structural       COIn5Ni15In5Ni15
_chemical_formula_sum              "C1 O1 In10 Ni30"
_cell_length_a       5.347533702850342
_cell_length_b       8.455192807901234
_cell_length_c       109.29618835449219
_cell_angle_alpha    75.03678223564508
_cell_angle_beta     90.0
_cell_angle_gamma    71.56505033034557

_space_group_name_H-M_alt    "P 1"
_space_group_IT_number       1

loop_
  _space_group_symop_operation_xyz
  'x, y, z'

loop_
  _atom_site_type_symbol
  _atom_site_label
  _atom_site_symmetry_multiplicity
  _atom_site_fract_x
  _atom_site_fract_y
  _atom_site_fract_z
  _atom_site_occupancy
  C   C1        1.0  0.0042597858043041305  0.002451946991579655  0.9999510239274169  1.0000
  O   O1        1.0  0.0042597858043041305  0.002451946991579655  6.081754876228599e-05  1.0000
  In  In1       1.0  0.008478594383419576  0.004019194812374748  0.9987844706594469  1.0000
  In  In2       1.0  0.006478594360252647  0.008019194858708606  0.9989043168201669  1.0000
  In  In3       1.0  0.000478595035204481  1.9194700054356758e-05  0.9992638553082724  1.0000
  In  In4       1.0  0.004478594910514486  0.0020191947892078187  0.9990241629832006  1.0000
  In  In5       1.0  0.002478594887347556  0.006019194835541677  0.9991440091439207  1.0000
  Ni  Ni1       1.0  0.005478594461224295  0.005019194823958213  0.9989642399016838  1.0000
  Ni  Ni2       1.0  0.003478594679379544  0.009019194387647714  0.9990840860720442  1.0000
  Ni  Ni3       1.0  0.007478594544721768  0.0010191946569632652  0.9988443937433739  1.0000
  Ni  Ni4       1.0  0.001478594988319203  0.0030191948007912833  0.9992039322254375  1.0000
  Ni  Ni5       1.0  0.009478594979085016  0.007019194847125141  0.99872454757793  1.0000
  Ni  Ni6       1.0  0.00047859497673573856  0.005019194823958213  0.9989642399016838  1.0000
  Ni  Ni7       1.0  0.00847859520882373  0.009019194387647714  0.9990840860720442  1.0000
  Ni  Ni8       1.0  0.002478595060233212  0.0010191946569632652  0.9988443937433739  1.0000
  Ni  Ni9       1.0  0.006478594472807758  0.0030191948007912833  0.9992039322254375  1.0000
  Ni  Ni10      1.0  0.0044785944496408304  0.007019194847125141  0.99872454757793  1.0000
  Ni  Ni11      1.0  0.00947859439500304  0.0020191947892078187  0.9990241629832006  1.0000
  Ni  Ni12      1.0  0.007478594371836111  0.006019194835541677  0.9991440091439207  1.0000
  Ni  Ni13      1.0  0.001478594875764091  0.008019194858708606  0.9989043168201669  1.0000
  Ni  Ni14      1.0  0.005478594955091216  1.9194700054356758e-05  0.9992638553082724  1.0000
  Ni  Ni15      1.0  0.0034785948989310206  0.004019194812374748  0.9987844706594469  1.0000
  In  In6       1.0  0.008478594383419576  0.004019194812374748  0.9993837014676744  1.0000
  In  In7       1.0  0.006478594360252647  0.008019194858708606  0.9995035476283943  1.0000
  In  In8       1.0  0.0004992633659779077  0.009980805349793755  0.9998729160860663  1.0000
  In  In9       1.0  0.004478174006465722  0.002018528378013176  0.9996160628780021  1.0000
  In  In10      1.0  0.0025086953015460585  0.005963038682068617  0.9997651427314915  1.0000
  Ni  Ni16      1.0  0.005478594461224295  0.005019194823958213  0.9995634707099113  1.0000
  Ni  Ni17      1.0  0.0034484931057231047  0.008966163356380206  0.9996857100665901  1.0000
  Ni  Ni18      1.0  0.007478594544721768  0.0010191946569632652  0.9994436245516014  1.0000
  Ni  Ni19      1.0  0.001319657918767588  0.003062541331732076  0.9997863719121672  1.0000
  Ni  Ni20      1.0  0.009478594979085016  0.007019194847125141  0.9993237783861575  1.0000
  Ni  Ni21      1.0  0.00047859497673573856  0.005019194823958213  0.9995634707099113  1.0000
  Ni  Ni22      1.0  0.00856509544015172  0.008964781062944422  0.9996857365863178  1.0000
  Ni  Ni23      1.0  0.002478595060233212  0.0010191946569632652  0.9994436245516014  1.0000
  Ni  Ni24      1.0  0.006589167839193904  0.0030628453976764003  0.9997862960338815  1.0000
  Ni  Ni25      1.0  0.0044785944496408304  0.007019194847125141  0.9993237783861575  1.0000
  Ni  Ni26      1.0  0.009521404301158557  0.0019307814621801118  0.9996222699829546  1.0000
  Ni  Ni27      1.0  0.0075334926988219674  0.00591331328199583  0.9997361913572445  1.0000
  Ni  Ni28      1.0  0.001478594875764091  0.008019194858708606  0.9995035476283943  1.0000
  Ni  Ni29      1.0  0.005410189893816944  0.00016234700663796613  0.9998448413346963  1.0000
  Ni  Ni30      1.0  0.0034785948989310206  0.004019194812374748  0.9993837014676744  1.0000
