data_image0
_chemical_formula_structural       COAs4Cu4Zn4As4Cu4Zn4
_chemical_formula_sum              "C1 O1 As8 Cu8 Zn8"
_cell_length_a       8.46907241047115
_cell_length_b       7.358473084870113
_cell_length_c       98.86054229736328
_cell_angle_alpha    84.91049170779642
_cell_angle_beta     86.52202916835957
_cell_angle_gamma    73.5440717498763

_space_group_name_H-M_alt    "P 1"
_space_group_IT_number       1

loop_
  _space_group_symop_operation_xyz
  'x, y, z'

loop_
  _atom_site_type_symbol
  _atom_site_label
  _atom_site_symmetry_multiplicity
  _atom_site_fract_x
  _atom_site_fract_y
  _atom_site_fract_z
  _atom_site_occupancy
  C   C1        1.0  0.002944963739484332  0.0023017951877395467  3.934165585268275e-05  1.0000
  O   O1        1.0  0.002944963739484332  0.0023017951877395467  0.00016072501102991935  1.0000
  As  As1       1.0  0.0047836347554278316  0.009380799684856262  0.9998872123638263  1.0000
  As  As2       1.0  0.0031215614155269958  0.004912861905416901  0.9996886976033352  1.0000
  As  As3       1.0  0.0020466528562250543  0.0004096190539255079  0.9994922393736685  1.0000
  As  As4       1.0  0.0007966528859352159  0.006034618676755422  0.9993097819046832  1.0000
  Cu  Cu1       1.0  0.00229627001617878  0.009550966122895216  0.9997691846601892  1.0000
  Cu  Cu2       1.0  0.0030243456354618016  0.0024856974986016385  0.9998633248308686  1.0000
  Cu  Cu3       1.0  0.004833827290157185  0.00959038026452153  0.9993566284547377  1.0000
  Cu  Cu4       1.0  0.001083827588938187  0.003965380740946901  0.9995390859304043  1.0000
  Zn  Zn1       1.0  0.00016617246854394482  0.006399974472069869  0.9997753411343663  1.0000
  Zn  Zn2       1.0  0.004336244132552099  0.0013530206607261857  0.9996377670369391  1.0000
  Zn  Zn3       1.0  0.003003624663543875  0.006845076463519453  0.999445677762875  1.0000
  Zn  Zn4       1.0  0.0017536248028963207  0.0024700768340725197  0.9992632202944117  1.0000
  As  As5       1.0  0.009783634843564148  0.009380799684856262  0.9998872126557826  1.0000
  As  As6       1.0  0.008121561503663312  0.004912861905416901  0.9996886975938335  1.0000
  As  As7       1.0  0.00704665250367979  0.0004096190539255079  0.9994922393664569  1.0000
  As  As8       1.0  0.005796652753730742  0.006034618676755422  0.9993097818963265  1.0000
  Cu  Cu5       1.0  0.007296270104315096  0.009550966122895216  0.9997691843492291  1.0000
  Cu  Cu6       1.0  0.008024345503257327  0.0024856974986016385  0.9998633251239701  1.0000
  Cu  Cu7       1.0  0.00983382693761192  0.00959038026452153  0.9993566284475262  1.0000
  Cu  Cu8       1.0  0.006083827456733713  0.003965380740946901  0.9995390859220475  1.0000
  Zn  Zn5       1.0  0.005166172005828286  0.006399974472069869  0.9997753414291854  1.0000
  Zn  Zn6       1.0  0.009336243780006836  0.0013530206607261857  0.9996377670297274  1.0000
  Zn  Zn7       1.0  0.00800362431099861  0.006845076463519453  0.9994456777556634  1.0000
  Zn  Zn8       1.0  0.0067536244503510565  0.0024700768340725197  0.9992632202872002  1.0000
