data_image0
_chemical_formula_structural       CONi8Si16Ni8Si16
_chemical_formula_sum              "C1 O1 Ni16 Si32"
_cell_length_a       7.745227336883545
_cell_length_b       9.485927741564872
_cell_length_c       105.91313934326172
_cell_angle_alpha    95.0511523749644
_cell_angle_beta     90.0
_cell_angle_gamma    90.0

_space_group_name_H-M_alt    "P 1"
_space_group_IT_number       1

loop_
  _space_group_symop_operation_xyz
  'x, y, z'

loop_
  _atom_site_type_symbol
  _atom_site_label
  _atom_site_symmetry_multiplicity
  _atom_site_fract_x
  _atom_site_fract_y
  _atom_site_fract_z
  _atom_site_occupancy
  C   C1        1.0  0.001250000101005552  0.003529911308317003  0.00012818341712274718  1.0000
  O   O1        1.0  0.001250000101005552  0.003529911308317003  0.00024148403679188286  1.0000
  Ni  Ni1       1.0  0.009999999846086778  0.003864943783805715  7.046533385713791e-06  1.0000
  Ni  Ni2       1.0  9.999999871482087e-11  0.0032812500315398895  0.9993867625130048  1.0000
  Ni  Ni3       1.0  9.999999871482087e-11  0.00015624999211502762  0.9995986884356236  1.0000
  Ni  Ni4       1.0  9.999999871482087e-11  0.007002437364807418  0.999802806946035  1.0000
  Ni  Ni5       1.0  0.002500000202011104  0.006718750252319115  0.9994927253411461  1.0000
  Ni  Ni6       1.0  0.002500000202011104  0.0035937500157699445  0.9997046509808258  1.0000
  Ni  Ni7       1.0  0.0024999999615216944  0.00033364989486682494  0.999911080313269  1.0000
  Ni  Ni8       1.0  0.002500000202011104  0.009843750094619668  0.9992807996983575  1.0000
  Si  Si1       1.0  9.999999871482087e-11  0.005781249905380331  0.9993867624444778  1.0000
  Si  Si2       1.0  9.999999871482087e-11  0.0026562500630797786  0.9995986880872664  1.0000
  Si  Si3       1.0  9.999999871482087e-11  0.00946901441781704  0.9998102873028412  1.0000
  Si  Si4       1.0  9.999999871482087e-11  0.006360044330071553  1.391328923985881e-05  1.0000
  Si  Si5       1.0  0.002500000202011104  0.004218749984230055  0.9994927254065643  1.0000
  Si  Si6       1.0  0.002500000202011104  0.0010937499448051935  0.999704650766414  1.0000
  Si  Si7       1.0  0.002500000202011104  0.007850851717051766  0.9999340335130391  1.0000
  Si  Si8       1.0  0.002500000202011104  0.007343750220779226  0.9992807997668846  1.0000
  Si  Si9       1.0  0.002500000202011104  0.006093749889610387  0.9997046511936832  1.0000
  Si  Si10      1.0  0.002500000202011104  0.0028720996043838124  0.9999209755633713  1.0000
  Si  Si11      1.0  0.002500000202011104  0.0023437498817254145  0.999280799617891  1.0000
  Si  Si12      1.0  0.002500000202011104  0.009218750126159558  0.999492725272619  1.0000
  Si  Si13      1.0  9.999999871482087e-11  0.007656249810760663  0.9995986879502121  1.0000
  Si  Si14      1.0  9.999999871482087e-11  0.004543572209012475  0.9998096372792349  1.0000
  Si  Si15      1.0  9.999999871482087e-11  0.0013788804014836162  1.087330828866439e-05  1.0000
  Si  Si16      1.0  9.999999871482087e-11  0.0007812500098562154  0.9993867625803662  1.0000
  Ni  Ni9       1.0  0.004999999923043389  0.003864943783805715  7.046533385713791e-06  1.0000
  Ni  Ni10      1.0  0.005000000404022208  0.0032812500315398895  0.9993867625130048  1.0000
  Ni  Ni11      1.0  0.005000000404022208  0.00015624999211502762  0.9995986884356236  1.0000
  Ni  Ni12      1.0  0.005000000404022208  0.007002437364807418  0.999802806946035  1.0000
  Ni  Ni13      1.0  0.007500000365543903  0.006718750252319115  0.9994927253411461  1.0000
  Ni  Ni14      1.0  0.007500000365543903  0.0035937500157699445  0.9997046509808258  1.0000
  Ni  Ni15      1.0  0.007500000365543903  0.00033364989486682494  0.999911080313269  1.0000
  Ni  Ni16      1.0  0.007500000365543903  0.009843750094619668  0.9992807996983575  1.0000
  Si  Si17      1.0  0.005000000404022208  0.005781249905380331  0.9993867624444778  1.0000
  Si  Si18      1.0  0.005000000404022208  0.0026562500630797786  0.9995986880872664  1.0000
  Si  Si19      1.0  0.005000000404022208  0.00946901441781704  0.9998102873028412  1.0000
  Si  Si20      1.0  0.005000000404022208  0.006360044330071553  1.391328923985881e-05  1.0000
  Si  Si21      1.0  0.007500000365543903  0.004218749984230055  0.9994927254065643  1.0000
  Si  Si22      1.0  0.007500000365543903  0.0010937499448051935  0.999704650766414  1.0000
  Si  Si23      1.0  0.007500000365543903  0.007850851717051766  0.9999340335130391  1.0000
  Si  Si24      1.0  0.007500000365543903  0.007343750220779226  0.9992807997668846  1.0000
  Si  Si25      1.0  0.007500000365543903  0.006093749889610387  0.9997046511936832  1.0000
  Si  Si26      1.0  0.007500000365543903  0.0028720996043838124  0.9999209755633713  1.0000
  Si  Si27      1.0  0.007500000365543903  0.0023437498817254145  0.999280799617891  1.0000
  Si  Si28      1.0  0.007500000365543903  0.009218750126159558  0.999492725272619  1.0000
  Si  Si29      1.0  0.005000000404022208  0.007656249810760663  0.9995986879502121  1.0000
  Si  Si30      1.0  0.005000000404022208  0.004543572209012475  0.9998096372792349  1.0000
  Si  Si31      1.0  0.005000000404022208  0.0013788804014836162  1.087330828866439e-05  1.0000
  Si  Si32      1.0  0.005000000404022208  0.0007812500098562154  0.9993867625803662  1.0000
