data_image0
_chemical_formula_structural       HSn8Pd16
_chemical_formula_sum              "H1 Sn8 Pd16"
_cell_length_a       8.316658973693848
_cell_length_b       7.266731539444424
_cell_length_c       99.06692504882812
_cell_angle_alpha    74.692116115221
_cell_angle_beta     90.0
_cell_angle_gamma    90.0

_space_group_name_H-M_alt    "P 1"
_space_group_IT_number       1

loop_
  _space_group_symop_operation_xyz
  'x, y, z'

loop_
  _atom_site_type_symbol
  _atom_site_label
  _atom_site_symmetry_multiplicity
  _atom_site_fract_x
  _atom_site_fract_y
  _atom_site_fract_z
  _atom_site_occupancy
  H   H1        1.0  0.0005197958912841521  0.004304578880095481  0.9999562773958385  1.0000
  Sn  Sn1       1.0  0.004073226176314401  0.007517915241773423  0.9998877255732057  1.0000
  Sn  Sn2       1.0  0.003938492081409308  0.0022725181294179744  0.9995208871927286  1.0000
  Sn  Sn3       1.0  0.0062705616505721075  0.0029511036584237505  0.9999252151725913  1.0000
  Sn  Sn4       1.0  0.006175620859754819  0.007735915637827186  0.999554878232025  1.0000
  Sn  Sn5       1.0  0.0012280665245642843  0.004776809604781682  0.9996987580801685  1.0000
  Sn  Sn6       1.0  0.0011756208463168853  0.009772518384541502  0.9993375077101111  1.0000
  Sn  Sn7       1.0  0.00893849220683002  0.00523591555278601  0.9993714987680281  1.0000
  Sn  Sn8       1.0  0.009051914635309827  0.00022748195562320147  0.9997603972777567  1.0000
  Pd  Pd1       1.0  0.007974377824402749  0.0040244290641620025  0.9996448128621517  1.0000
  Pd  Pd2       1.0  0.007971601547373367  0.008998983851497154  0.9992807677019101  1.0000
  Pd  Pd3       1.0  0.0021425116177563163  0.006009450085830358  0.9994282387762291  1.0000
  Pd  Pd4       1.0  0.0022694389452837744  0.0010566331517409427  0.9997874753683915  1.0000
  Pd  Pd5       1.0  0.007220464522623259  0.006711492628596885  0.9998224711974557  1.0000
  Pd  Pd6       1.0  0.007142511519211471  0.0014989835963736267  0.9994641471845276  1.0000
  Pd  Pd7       1.0  0.002971601421952655  0.0035094497350355086  0.9992448596182087  1.0000
  Pd  Pd8       1.0  0.002971601421952655  0.008509449639364187  0.9996116182505188  1.0000
  Pd  Pd9       1.0  0.004487227402025927  0.004601983019046094  0.9996979229988726  1.0000
  Pd  Pd10      1.0  0.00445371901936427  0.009614352428116056  0.9993259060691282  1.0000
  Pd  Pd11      1.0  0.0056603939217998575  0.005394081509211456  0.999383100409011  1.0000
  Pd  Pd12      1.0  0.0057813456243336935  0.0006392999606871654  0.9997540666433142  1.0000
  Pd  Pd13      1.0  0.0008511169845809355  0.007090466402884815  0.9998626911101965  1.0000
  Pd  Pd14      1.0  0.0006603939083619236  0.0021143520401156915  0.9995092852534887  1.0000
  Pd  Pd15      1.0  0.009480203967617548  0.0030037018912715237  0.9999149935955896  1.0000
  Pd  Pd16      1.0  0.00945371869685387  0.007894081594252632  0.9995664801738381  1.0000
