data_image0
_chemical_formula_structural       HSb2Pd2Sb2Pd2Sb2Pd2Sb2Pd2Sb2Pd2Sb2Pd2Sb2Pd2Sb2Pd2
_chemical_formula_sum              "H1 Sb16 Pd16"
_cell_length_a       8.351772092929078
_cell_length_b       8.35177230834961
_cell_length_c       104.35411834716797
_cell_angle_alpha    90.0
_cell_angle_beta     90.0
_cell_angle_gamma    120.00000085323855

_space_group_name_H-M_alt    "P 1"
_space_group_IT_number       1

loop_
  _space_group_symop_operation_xyz
  'x, y, z'

loop_
  _atom_site_type_symbol
  _atom_site_label
  _atom_site_symmetry_multiplicity
  _atom_site_fract_x
  _atom_site_fract_y
  _atom_site_fract_z
  _atom_site_occupancy
  H   H1        1.0  0.005000000226622766  0.004166666699689432  0.9999808952805119  1.0000
  Sb  Sb1       1.0  0.0008333333067223267  0.0008333332720776834  0.0  1.0000
  Sb  Sb2       1.0  0.0041666665979931015  0.0024999999455910626  0.9997256609574947  1.0000
  Pd  Pd1       1.0  0.0024999998557855125  0.004166666398298358  0.9995884911506537  1.0000
  Pd  Pd2       1.0  0.0024999998557855125  0.004166666398298358  0.9998628307643357  1.0000
  Sb  Sb3       1.0  0.0008333333067223267  0.0008333332720776834  0.9994513219149894  1.0000
  Sb  Sb4       1.0  0.0041666665979931015  0.0024999999455910626  0.9991769823013075  1.0000
  Pd  Pd3       1.0  0.0024999998557855125  0.004166666398298358  0.9990398127800548  1.0000
  Pd  Pd4       1.0  0.0024999998557855125  0.004166666398298358  0.9993141521081484  1.0000
  Sb  Sb5       1.0  0.0008333333067223267  0.005833332891821869  0.0  1.0000
  Sb  Sb6       1.0  0.0041666665979931015  0.007499999537457257  0.9997256609574947  1.0000
  Pd  Pd5       1.0  0.0024999998557855125  0.009166666380456443  0.9995884911506537  1.0000
  Pd  Pd6       1.0  0.0024999998557855125  0.009166666380456443  0.9998628307643357  1.0000
  Sb  Sb7       1.0  0.0008333333067223267  0.005833332891821869  0.9994513219149894  1.0000
  Sb  Sb8       1.0  0.0041666665979931015  0.007499999537457257  0.9991769823013075  1.0000
  Pd  Pd7       1.0  0.0024999998557855125  0.009166666380456443  0.9990398127800548  1.0000
  Pd  Pd8       1.0  0.0024999998557855125  0.009166666380456443  0.9993141521081484  1.0000
  Sb  Sb9       1.0  0.00583333334020069  0.0008333333813717991  0.0  1.0000
  Sb  Sb10      1.0  0.009166666309564126  0.0024999998660535177  0.9997256609574947  1.0000
  Pd  Pd9       1.0  0.007500000082408278  0.0041666667435546366  0.9995884911506537  1.0000
  Pd  Pd10      1.0  0.007500000082408278  0.0041666667435546366  0.9998628307643357  1.0000
  Sb  Sb11      1.0  0.00583333334020069  0.0008333333813717991  0.9994513219149894  1.0000
  Sb  Sb12      1.0  0.009166666309564126  0.0024999998660535177  0.9991769823013075  1.0000
  Pd  Pd11      1.0  0.007500000082408278  0.0041666667435546366  0.9990398127800548  1.0000
  Pd  Pd12      1.0  0.007500000082408278  0.0041666667435546366  0.9993141521081484  1.0000
  Sb  Sb13      1.0  0.00583333334020069  0.005833333140505947  0.0  1.0000
  Sb  Sb14      1.0  0.009166666309564126  0.007499999625187666  0.9997256609574947  1.0000
  Pd  Pd13      1.0  0.007500000082408278  0.009166666279664845  0.9995884911506537  1.0000
  Pd  Pd14      1.0  0.007500000082408278  0.009166666279664845  0.9998628307643357  1.0000
  Sb  Sb15      1.0  0.00583333334020069  0.005833333140505947  0.9994513219149894  1.0000
  Sb  Sb16      1.0  0.009166666309564126  0.007499999625187666  0.9991769823013075  1.0000
  Pd  Pd15      1.0  0.007500000082408278  0.009166666279664845  0.9990398127800548  1.0000
  Pd  Pd16      1.0  0.007500000082408278  0.009166666279664845  0.9993141521081484  1.0000
