data_image0
_chemical_formula_structural       HAg16Ge2Se12
_chemical_formula_sum              "H1 Ag16 Ge2 Se12"
_cell_length_a       11.179972648620605
_cell_length_b       8.154851913452148
_cell_length_c       101.82456970214844
_cell_angle_alpha    90.0
_cell_angle_beta     90.0
_cell_angle_gamma    90.0

_space_group_name_H-M_alt    "P 1"
_space_group_IT_number       1

loop_
  _space_group_symop_operation_xyz
  'x, y, z'

loop_
  _atom_site_type_symbol
  _atom_site_label
  _atom_site_symmetry_multiplicity
  _atom_site_fract_x
  _atom_site_fract_y
  _atom_site_fract_z
  _atom_site_occupancy
  H   H1        1.0  0.0011532256613220823  0.009999562404060728  8.709134426266358e-05  1.0000
  Ag  Ag1       1.0  0.004502609791491139  4.381500306824741e-07  0.9995924514825214  1.0000
  Ag  Ag2       1.0  0.009411960301546073  0.004998304763417816  0.9999523359851196  1.0000
  Ag  Ag3       1.0  0.0011541245814016333  0.0019065749279585668  0.9999663221358274  1.0000
  Ag  Ag4       1.0  0.0062627614496431  0.0029992285809249744  0.9996864375606439  1.0000
  Ag  Ag5       1.0  0.0062627614496431  0.007001648319456175  0.9996864375606439  1.0000
  Ag  Ag6       1.0  0.0011523267412425315  0.00809254915838906  0.999965865550319  1.0000
  Ag  Ag7       1.0  0.002374983669993417  0.0019813518384496657  0.9994449614852563  1.0000
  Ag  Ag8       1.0  0.007374983243483287  0.003019524586839851  0.999388940492157  1.0000
  Ag  Ag9       1.0  0.007374983243483287  0.0069813518567224215  0.999388940492157  1.0000
  Ag  Ag10      1.0  0.002374983669993417  0.008019524833522045  0.9994449614852563  1.0000
  Ag  Ag11      1.0  0.00812833674868428  0.0020739056271548697  0.9999165947056686  1.0000
  Ag  Ag12      1.0  0.003327546728236531  0.0029164493457447347  0.9997278592321122  1.0000
  Ag  Ag13      1.0  0.003327546728236531  0.007084427554636415  0.9997278592321122  1.0000
  Ag  Ag14      1.0  0.008131682187512448  0.007925438417482344  0.9999167919740228  1.0000
  Ag  Ag15      1.0  0.0051183494702019125  0.005000438564395295  0.9993249233990005  1.0000
  Ag  Ag16      1.0  0.00011834950102393352  4.381500306824741e-07  0.9995089782857298  1.0000
  Ge  Ge1       1.0  0.004261728532742884  3.6143500677004665e-06  0.9999483590082682  1.0000
  Ge  Ge2       1.0  0.009881649916689775  0.005000438564395295  0.999612639001019  1.0000
  Se  Se1       1.0  0.0034819890450233475  0.007456563176018848  0.9999998817560607  1.0000
  Se  Se2       1.0  0.008682135494207096  0.007486810524364337  0.9996122994887179  1.0000
  Se  Se3       1.0  0.0011950422305272747  0.005000438564395295  0.9994242734787976  1.0000
  Se  Se4       1.0  0.0061950423038337026  4.381500306824741e-07  0.9994096284986157  1.0000
  Se  Se5       1.0  0.0012578696716835916  0.005004450804597648  0.9998008479378256  1.0000
  Se  Se6       1.0  0.006052723870688611  1.4445500674373844e-06  0.9998223226762373  1.0000
  Se  Se7       1.0  0.007087474764461913  0.005000915940122433  0.9999396780299482  1.0000
  Se  Se8       1.0  0.0021582307223712493  4.381500306824741e-07  0.999659523015656  1.0000
  Se  Se9       1.0  0.004665344398186103  0.005000438564395295  0.9995858230902082  1.0000
  Se  Se10      1.0  0.009444030531173155  3.214150187208693e-06  4.7631234382434155e-05  1.0000
  Se  Se11      1.0  0.0034809877458521674  0.0025489636837178467  0.0  1.0000
  Se  Se12      1.0  0.008682135494207096  0.0025140663760168133  0.9996122994887179  1.0000
