data_image0
_chemical_formula_structural       COAl8Na8Se16
_chemical_formula_sum              "C1 O1 Al8 Na8 Se16"
_cell_length_a       6.370626897929396
_cell_length_b       10.99535083770752
_cell_length_c       103.33491516113281
_cell_angle_alpha    90.0
_cell_angle_beta     90.69360518979299
_cell_angle_gamma    90.0

_space_group_name_H-M_alt    "P 1"
_space_group_IT_number       1

loop_
  _space_group_symop_operation_xyz
  'x, y, z'

loop_
  _atom_site_type_symbol
  _atom_site_label
  _atom_site_symmetry_multiplicity
  _atom_site_fract_x
  _atom_site_fract_y
  _atom_site_fract_z
  _atom_site_occupancy
  C   C1        1.0  0.004953673547782898  0.006253914699481615  3.696932835150495e-06  1.0000
  O   O1        1.0  0.004953673547782898  0.006253914699481615  0.0001198244227545366  1.0000
  Al  Al1       1.0  0.009126926580488312  0.0029072796367063474  0.9993725314933465  1.0000
  Al  Al2       1.0  0.006626926627272573  0.007907279609601872  0.9996413573404911  1.0000
  Al  Al3       1.0  0.0016269267208410924  0.007907279609601872  0.9991037056939284  1.0000
  Al  Al4       1.0  0.0035466889881230856  0.0029072796367063474  0.9998652443369681  1.0000
  Al  Al5       1.0  0.009126926580488312  0.007907279609601872  0.9993725314933465  1.0000
  Al  Al6       1.0  0.006626926627272573  0.0029072796367063474  0.9996413573404911  1.0000
  Al  Al7       1.0  0.0016269267208410924  0.0029072796367063474  0.9991037056939284  1.0000
  Al  Al8       1.0  0.004579821699011183  0.007907279609601872  0.9999009516122652  1.0000
  Na  Na1       1.0  0.0028769266974489624  0.005407279623154109  0.999506944440782  1.0000
  Na  Na2       1.0  0.009623073068629738  0.0007132665700124663  0.9998514279299806  1.0000
  Na  Na3       1.0  0.005376926650664703  0.0004072796079078415  0.9992381185936374  1.0000
  Na  Na4       1.0  0.007876926603880443  0.005407279623154109  0.9989692927464927  1.0000
  Na  Na5       1.0  0.009623072483826494  0.005101292788101716  0.9998514279295442  1.0000
  Na  Na6       1.0  0.007876926603880443  0.0004072796079078415  0.9989692927464927  1.0000
  Na  Na7       1.0  0.0028769266974489624  0.0004072796079078415  0.999506944440782  1.0000
  Na  Na8       1.0  0.005376926650664703  0.005407279623154109  0.9992381185936374  1.0000
  Se  Se1       1.0  0.0029334450070490777  0.007907279609601872  0.99969102775666  1.0000
  Se  Se2       1.0  0.0007971602886605658  0.0029072796367063474  7.852691351878658e-07  1.0000
  Se  Se3       1.0  0.0053487654504081605  0.0029072796367063474  0.9994163264839693  1.0000
  Se  Se4       1.0  0.0078487654036239  0.007907279609601872  0.9991475006368247  1.0000
  Se  Se5       1.0  0.007876926603880443  0.006221838584865329  0.9995069445611214  1.0000
  Se  Se6       1.0  0.005261695849689734  0.0012140096534543115  0.9997711878865772  1.0000
  Se  Se7       1.0  0.00037692678078342525  0.0012218387813727805  0.9992381184733253  1.0000
  Se  Se8       1.0  0.0028769266974489624  0.006221838584865329  0.9989692926261534  1.0000
  Se  Se9       1.0  0.00037692678078342525  0.004592720322636939  0.9992381184733253  1.0000
  Se  Se10      1.0  0.007876926603880443  0.009592720634338414  0.9995069445611214  1.0000
  Se  Se11      1.0  0.0028769266974489624  0.009592720634338414  0.9989692926261534  1.0000
  Se  Se12      1.0  0.005261696434492979  0.004600549789361359  0.9997711878870136  1.0000
  Se  Se13      1.0  0.002905087897705505  0.007907279609601872  0.9993287365504502  1.0000
  Se  Se14      1.0  0.0004050879810399676  0.0029072796367063474  0.9995975623976221  1.0000
  Se  Se15      1.0  0.005405087850921245  0.0029072796367063474  0.9990599107033055  1.0000
  Se  Se16      1.0  0.008266460536466496  0.007907279609601872  0.9998620359089009  1.0000
