data_image0
_chemical_formula_structural       HCu8Ge4Se16
_chemical_formula_sum              "H1 Cu8 Ge4 Se16"
_cell_length_a       8.087997436523438
_cell_length_b       6.616605343381622
_cell_length_c       108.54166412353516
_cell_angle_alpha    85.24731068680133
_cell_angle_beta     90.0
_cell_angle_gamma    90.0

_space_group_name_H-M_alt    "P 1"
_space_group_IT_number       1

loop_
  _space_group_symop_operation_xyz
  'x, y, z'

loop_
  _atom_site_type_symbol
  _atom_site_label
  _atom_site_symmetry_multiplicity
  _atom_site_fract_x
  _atom_site_fract_y
  _atom_site_fract_z
  _atom_site_occupancy
  H   H1        1.0  0.006200094543549727  0.0006327425314749098  0.0001211471901298715  1.0000
  Cu  Cu1       1.0  0.00369177974639719  0.0009588373917194616  0.9994076265642269  1.0000
  Cu  Cu2       1.0  0.00869178025305157  0.007625503712816513  0.9991117211547744  1.0000
  Cu  Cu3       1.0  0.00869178025305157  0.004292170658198728  0.9997035317890546  1.0000
  Cu  Cu4       1.0  0.0037907067777017247  0.007664770967050506  0.9999610366145081  1.0000
  Cu  Cu5       1.0  0.00869178025305157  0.0009588373917194616  0.9994076265642269  1.0000
  Cu  Cu6       1.0  0.00369177974639719  0.007625503712816513  0.9991117211547744  1.0000
  Cu  Cu7       1.0  0.00369177974639719  0.004292170658198728  0.9997035317890546  1.0000
  Cu  Cu8       1.0  0.008604081143407289  0.007660994748022824  0.9999613060954695  1.0000
  Ge  Ge1       1.0  0.006199594798092887  0.0025986790776801744  0.9999716964269663  1.0000
  Ge  Ge2       1.0  0.0011917796082187226  0.00929217052260738  0.9997035318336707  1.0000
  Ge  Ge3       1.0  0.0011917796082187226  0.002625504130889835  0.9991117211087316  1.0000
  Ge  Ge4       1.0  0.006191779884575657  0.005958837467989594  0.9994076266077729  1.0000
  Se  Se1       1.0  0.008767816178863514  0.00760110800458277  0.9993347331661638  1.0000
  Se  Se2       1.0  0.0037678159025065798  0.0042677749499649845  0.9990388276656957  1.0000
  Se  Se3       1.0  0.0037678159025065798  0.0009344416128652252  0.9996306383014026  1.0000
  Se  Se4       1.0  0.008808220483900255  0.004155641753034137  0.999936601781496  1.0000
  Se  Se5       1.0  0.006191779884575657  0.009367257056101407  0.9990411618348778  1.0000
  Se  Se6       1.0  0.0011983255828109819  0.00929751451659045  0.9999267667778354  1.0000
  Se  Se7       1.0  0.0011917796082187226  0.0027005906643838627  0.9993370669701166  1.0000
  Se  Se8       1.0  0.006191779884575657  0.006033924001483622  0.9996329727437282  1.0000
  Se  Se9       1.0  0.006191779884575657  0.0025992090138632932  0.999328067359316  1.0000
  Se  Se10      1.0  0.0011917796082187226  0.009265875405580838  0.999032161949507  1.0000
  Se  Se11      1.0  0.0011917796082187226  0.005932542350963053  0.999623972583787  1.0000
  Se  Se12      1.0  0.006200594749601457  0.009102086707448687  4.2478115542346025e-05  1.0000
  Se  Se13      1.0  0.003615743359990355  0.00760110800458277  0.9993347331661638  1.0000
  Se  Se14      1.0  0.008615743406049845  0.0042677749499649845  0.9990388276656957  1.0000
  Se  Se15      1.0  0.008615743406049845  0.0009344416128652252  0.9996306383014026  1.0000
  Se  Se16      1.0  0.003592141786878249  0.004156471685073583  0.9999372560093943  1.0000
