data_image0
_chemical_formula_structural       COPt4Sn8
_chemical_formula_sum              "C1 O1 Pt4 Sn8"
_cell_length_a       4.657598972320557
_cell_length_b       4.657598972320557
_cell_length_c       109.52104187011719
_cell_angle_alpha    90.0
_cell_angle_beta     90.0
_cell_angle_gamma    90.0

_space_group_name_H-M_alt    "P 1"
_space_group_IT_number       1

loop_
  _space_group_symop_operation_xyz
  'x, y, z'

loop_
  _atom_site_type_symbol
  _atom_site_label
  _atom_site_symmetry_multiplicity
  _atom_site_fract_x
  _atom_site_fract_y
  _atom_site_fract_z
  _atom_site_occupancy
  C   C1        1.0  0.004999998784257449  0.007499998176386174  0.00015814727311649025  1.0000
  O   O1        1.0  0.004999998784257449  0.007499998176386174  0.0002677154813236957  1.0000
  Pt  Pt1       1.0  1.2500000359826145e-09  0.0024999999920016936  0.9995475771852343  1.0000
  Pt  Pt2       1.0  0.005000001183749325  0.0074999997760474245  0.9998364071607582  1.0000
  Pt  Pt3       1.0  1.2500000359826145e-09  0.0024999999920016936  0.9989461547885594  1.0000
  Pt  Pt4       1.0  0.005000001183749325  0.0074999997760474245  0.9992468661229544  1.0000
  Sn  Sn1       1.0  0.0050000003839187  0.0025000003919170063  0.0  1.0000
  Sn  Sn2       1.0  0.009999999168176149  0.007499998176386174  0.9999999994557699  1.0000
  Sn  Sn3       1.0  1.2500000359826145e-09  0.0074999997760474245  0.9996979327163744  1.0000
  Sn  Sn4       1.0  0.005000001183749325  0.0024999999920016936  0.9996979327163744  1.0000
  Sn  Sn5       1.0  0.005000001183749325  0.0024999999920016936  0.9993972216540944  1.0000
  Sn  Sn6       1.0  1.2500000359826145e-09  0.0074999997760474245  0.9993972216540944  1.0000
  Sn  Sn7       1.0  1.2500000359826145e-09  0.0074999997760474245  0.9990965103196994  1.0000
  Sn  Sn8       1.0  0.005000001183749325  0.0024999999920016936  0.9990965103196994  1.0000
