data_image0
_chemical_formula_structural       HAl18V6
_chemical_formula_sum              "H1 Al18 V6"
_cell_length_a       4.965517881177809
_cell_length_b       7.305589815905797
_cell_length_c       104.9073257446289
_cell_angle_alpha    88.59793984777026
_cell_angle_beta     87.9369588812467
_cell_angle_gamma    85.06619307797853

_space_group_name_H-M_alt    "P 1"
_space_group_IT_number       1

loop_
  _space_group_symop_operation_xyz
  'x, y, z'

loop_
  _atom_site_type_symbol
  _atom_site_label
  _atom_site_symmetry_multiplicity
  _atom_site_fract_x
  _atom_site_fract_y
  _atom_site_fract_z
  _atom_site_occupancy
  H   H1        1.0  0.009515441215385972  0.0013526392682187722  2.350194909771268e-05  1.0000
  Al  Al1       1.0  0.0071512262486798294  0.006071428667965389  0.9991344304383923  1.0000
  Al  Al2       1.0  0.00048455948159219995  0.0017857143442214477  0.9992928800225201  1.0000
  Al  Al3       1.0  0.003817892758558618  0.007499999938567481  0.9994513299390889  1.0000
  Al  Al4       1.0  0.005484559760415184  0.0024999999795224936  0.9991740428992446  1.0000
  Al  Al5       1.0  0.008817893113943136  0.008214286085806191  0.9993324925307282  1.0000
  Al  Al6       1.0  0.0021512262381948727  0.0039285715060934185  0.9994909423995597  1.0000
  Al  Al7       1.0  0.002151226204456401  0.0053571430326643426  0.9992532675612682  1.0000
  Al  Al8       1.0  0.00548455977007933  0.0010714286449281935  0.9994117174531676  1.0000
  Al  Al9       1.0  0.008817893179780706  0.0067857143032664345  0.9995701668012363  1.0000
  Al  Al10      1.0  0.007151226284057673  0.003214285870792372  0.9996097792623466  1.0000
  Al  Al11      1.0  0.0004863767367400861  0.008943962615084407  0.9997661345542191  1.0000
  Al  Al12      1.0  0.0039048544332074783  0.004573109473995435  0.9999378527884226  1.0000
  Al  Al13      1.0  0.0054845600633794105  0.009642856844470618  0.9996493917474657  1.0000
  Al  Al14      1.0  0.008806304113077815  0.00537463133525728  0.9998042629444904  1.0000
  Al  Al15      1.0  0.002062336749419068  0.000983299791655295  0.9999649806819423  1.0000
  Al  Al16      1.0  0.002151226271933344  0.0024999999795224936  0.9997286166696864  1.0000
  Al  Al17      1.0  0.005514773851259284  0.00816406807244149  0.9999001491418873  1.0000
  Al  Al18      1.0  0.00888677147641458  0.004103114605412864  3.8867234187583665e-05  1.0000
  V   V1        1.0  0.00048455945637359833  0.0003571429136388353  0.9995305548607485  1.0000
  V   V2        1.0  0.003817892692721047  0.008928571721107238  0.999213655100416  1.0000
  V   V3        1.0  0.007151226250319201  0.004642857397363297  0.99937210499222  1.0000
  V   V4        1.0  0.0005107832961635644  0.00740000315435512  0.9999865206236531  1.0000
  V   V5        1.0  0.0038178927601979903  0.006071428667965389  0.9996890042088341  1.0000
  V   V6        1.0  0.00720697642436276  0.0018241635505771808  0.9998468492873618  1.0000
