data_image0
_chemical_formula_structural       HAg8Au24
_chemical_formula_sum              "H1 Ag8 Au24"
_cell_length_a       11.341396468369053
_cell_length_b       7.671714220127445
_cell_length_c       98.78338623046875
_cell_angle_alpha    88.860660429461
_cell_angle_beta     89.2293387218168
_cell_angle_gamma    109.0228940511599

_space_group_name_H-M_alt    "P 1"
_space_group_IT_number       1

loop_
  _space_group_symop_operation_xyz
  'x, y, z'

loop_
  _atom_site_type_symbol
  _atom_site_label
  _atom_site_symmetry_multiplicity
  _atom_site_fract_x
  _atom_site_fract_y
  _atom_site_fract_z
  _atom_site_occupancy
  H   H1        1.0  0.0037523674179238773  0.0036362556772232962  1.3795606722128354e-05  1.0000
  Ag  Ag1       1.0  0.003856658885998115  0.00015624997687805446  0.9996261106881907  1.0000
  Ag  Ag2       1.0  0.0007316588512461079  0.004531249960112129  0.9998082222958579  1.0000
  Ag  Ag3       1.0  0.007606658997204537  0.008906250205375164  0.9999903338485363  1.0000
  Ag  Ag4       1.0  0.006981658746990087  0.0057812498612459795  0.999443998724998  1.0000
  Ag  Ag5       1.0  0.007710825358053542  0.0010937498117552578  0.9995957584253022  1.0000
  Ag  Ag6       1.0  0.004585825497061571  0.005468749878818957  0.9997778706359589  1.0000
  Ag  Ag7       1.0  0.0014608256360695985  0.00984374970304078  0.9999599819419095  1.0000
  Ag  Ag8       1.0  0.0008358255596151831  0.006718750171266849  0.9994136468168484  1.0000
  Au  Au1       1.0  0.006145999475728442  0.0032802530083449488  0.9996863304654755  1.0000
  Au  Au2       1.0  0.00302099961473647  0.007655253075408647  0.9998684420727447  1.0000
  Au  Au3       1.0  0.0023959995382820546  0.004530253057950963  0.9993221066467399  1.0000
  Au  Au4       1.0  0.009270999336720414  0.00890525313555475  0.9995042185019076  1.0000
  Au  Au5       1.0  0.004276980935571625  0.0039032593203983173  0.9995047994940623  1.0000
  Au  Au6       1.0  0.001151980900819618  0.008278259303632391  0.999686911403423  1.0000
  Au  Au7       1.0  0.008026981046778047  0.0026532592332009887  0.9998690230108939  1.0000
  Au  Au8       1.0  0.007401980796563597  0.009528258961924366  0.9993226878329382  1.0000
  Au  Au9       1.0  0.005834496385702306  0.001722737596102033  0.9994140340086031  1.0000
  Au  Au10      1.0  0.002709496350950299  0.006097737700757045  0.9995961459177762  1.0000
  Au  Au11      1.0  0.009584496496908727  0.00047273775174658  0.9997782575250596  1.0000
  Au  Au12      1.0  0.006459496635916756  0.004847737697389341  0.99996036943421  1.0000
  Au  Au13      1.0  0.005421484768323215  0.007969746731719986  0.9995355388954814  1.0000
  Au  Au14      1.0  0.0022964849073312432  0.002344746847352063  0.9997176505569806  1.0000
  Au  Au15      1.0  0.009171484879529637  0.006719746765943597  0.9998997624121254  1.0000
  Au  Au16      1.0  0.008546484629315187  0.003594746603945819  0.9993534269866122  1.0000
  Au  Au17      1.0  0.007290503308480033  0.007346740662508494  0.9997170695648259  1.0000
  Au  Au18      1.0  0.004165503447488061  0.0017217406870748669  0.9998991812264656  1.0000
  Au  Au19      1.0  0.0035405035447936798  0.008596740553102257  0.9993528460477613  1.0000
  Au  Au20      1.0  0.0004155035969216906  0.0029717408696613976  0.9995349577090843  1.0000
  Au  Au21      1.0  0.005732987858349351  0.009527262022541965  0.9998078350508477  1.0000
  Au  Au22      1.0  0.0026079879973573794  0.003902262381015917  0.9999899467119718  1.0000
  Au  Au23      1.0  0.001982988094662999  0.0007772623714997705  0.9994436115873802  1.0000
  Au  Au24      1.0  0.008857987719341324  0.005152262137609673  0.9996257231416035  1.0000
