data_image0
_chemical_formula_structural       COMo2Zn12
_chemical_formula_sum              "C1 O1 Mo2 Zn12"
_cell_length_a       5.510931491851807
_cell_length_b       5.510931491851807
_cell_length_c       101.1745376586914
_cell_angle_alpha    90.0
_cell_angle_beta     90.0
_cell_angle_gamma    90.0

_space_group_name_H-M_alt    "P 1"
_space_group_IT_number       1

loop_
  _space_group_symop_operation_xyz
  'x, y, z'

loop_
  _atom_site_type_symbol
  _atom_site_label
  _atom_site_symmetry_multiplicity
  _atom_site_fract_x
  _atom_site_fract_y
  _atom_site_fract_z
  _atom_site_occupancy
  C   C1        1.0  0.0012471721071876372  0.0074999996214501  0.00016580623971572902  1.0000
  O   O1        1.0  0.0012471721071876372  0.0074999996214501  0.00028441339717244713  1.0000
  Mo  Mo1       1.0  0.001247153686679093  0.009999999269939478  0.9999892236901946  1.0000
  Mo  Mo2       1.0  0.00624718940218621  0.004999999972960721  0.9996137215490339  1.0000
  Zn  Zn1       1.0  0.008747189050675588  0.002500000155475852  0.9994211424359797  1.0000
  Zn  Zn2       1.0  0.008747189050675588  0.0074999996214501  0.9994211424359797  1.0000
  Zn  Zn3       1.0  0.0037471894157058492  0.0074999996214501  0.9994211424359797  1.0000
  Zn  Zn4       1.0  0.008752844991776166  0.0075056041879213425  0.9998074232434535  1.0000
  Zn  Zn5       1.0  0.0012471906121939273  0.0049999992969787565  0.0  1.0000
  Zn  Zn6       1.0  0.006247173854601017  9.499999370438819e-10  0.9999999988217462  1.0000
  Zn  Zn7       1.0  0.003741586539189519  0.00750558323248043  0.9998074208869457  1.0000
  Zn  Zn8       1.0  0.003741586539189519  0.00249441620645454  0.9998074197086919  1.0000
  Zn  Zn9       1.0  0.00875284566775813  0.002494394575031662  0.9998074220651997  1.0000
  Zn  Zn10      1.0  0.0037471894157058492  0.002500000155475852  0.9994211424359797  1.0000
  Zn  Zn11      1.0  0.00624718940218621  2.4999998979444233e-10  0.9996137215490339  1.0000
  Zn  Zn12      1.0  0.0012471894292254886  0.004999999972960721  0.9996137215490339  1.0000
