data_image0
_chemical_formula_structural       HCo8Ga4Mn4Co8Ga4Mn4Co8Ga4Mn4Co8Ga4Mn4
_chemical_formula_sum              "H1 Co32 Ga16 Mn16"
_cell_length_a       8.07123851776123
_cell_length_b       8.07123851776123
_cell_length_c       104.24336242675781
_cell_angle_alpha    90.0
_cell_angle_beta     90.0
_cell_angle_gamma    90.0

_space_group_name_H-M_alt    "P 1"
_space_group_IT_number       1

loop_
  _space_group_symop_operation_xyz
  'x, y, z'

loop_
  _atom_site_type_symbol
  _atom_site_label
  _atom_site_symmetry_multiplicity
  _atom_site_fract_x
  _atom_site_fract_y
  _atom_site_fract_z
  _atom_site_occupancy
  H   H1        1.0  6.500000162957624e-10  0.0049999990953595325  0.0001181899567208304  1.0000
  Co  Co1       1.0  0.0024999997784553958  2.500000138859206e-09  0.9997295046182183  1.0000
  Co  Co2       1.0  0.010000000036924101  0.0024999993169041368  0.9997295269177786  1.0000
  Co  Co3       1.0  6.500000162957624e-10  0.0024999990861285072  0.0  1.0000
  Co  Co4       1.0  0.0024999997784553958  2.6000000651830496e-09  0.9999999067992736  1.0000
  Co  Co5       1.0  0.0025000000092310253  2.0999999933942504e-09  0.9991854239360947  1.0000
  Co  Co6       1.0  5.00000009889952e-11  0.00250000208621169  0.9991854239360947  1.0000
  Co  Co7       1.0  5.00000009889952e-11  0.00250000208621169  0.999459169335844  1.0000
  Co  Co8       1.0  0.0025000000092310253  2.0999999933942504e-09  0.999459169335844  1.0000
  Ga  Ga1       1.0  0.010000000036924101  0.009999998190719065  0.9998704292625561  1.0000
  Ga  Ga2       1.0  0.0025000000092310253  0.00250000208621169  0.9995960423216105  1.0000
  Ga  Ga3       1.0  5.00000009889952e-11  2.0999999933942504e-09  0.9993222966359693  1.0000
  Ga  Ga4       1.0  0.0025000000092310253  0.00250000208621169  0.9990485512362199  1.0000
  Mn  Mn1       1.0  5.00000009889952e-11  2.0999999933942504e-09  0.9995960423216105  1.0000
  Mn  Mn2       1.0  0.002500000932333543  0.00250000208621169  0.9998882037274655  1.0000
  Mn  Mn3       1.0  5.00000009889952e-11  2.0999999933942504e-09  0.9990485512362199  1.0000
  Mn  Mn4       1.0  0.0025000000092310253  0.00250000208621169  0.9993222966359693  1.0000
  Co  Co9       1.0  0.0024999997784553958  0.005000002787769604  0.9997295046182183  1.0000
  Co  Co10      1.0  0.010000000036924101  0.007499999335366187  0.9997295269177786  1.0000
  Co  Co11      1.0  6.500000162957624e-10  0.007499998873814928  0.0  1.0000
  Co  Co12      1.0  0.0024999997784553958  0.005000002787769604  0.9999999067992736  1.0000
  Co  Co13      1.0  0.0025000000092310253  0.005000002326218345  0.9991854239360947  1.0000
  Co  Co14      1.0  5.00000009889952e-11  0.0075000021046737406  0.9991854239360947  1.0000
  Co  Co15      1.0  5.00000009889952e-11  0.0075000021046737406  0.999459169335844  1.0000
  Co  Co16      1.0  0.0025000000092310253  0.005000002326218345  0.999459169335844  1.0000
  Ga  Ga5       1.0  0.010000000036924101  0.0049999981722570145  0.9998704292625561  1.0000
  Ga  Ga6       1.0  0.0025000000092310253  0.0075000021046737406  0.9995960423216105  1.0000
  Ga  Ga7       1.0  5.00000009889952e-11  0.005000002326218345  0.9993222966359693  1.0000
  Ga  Ga8       1.0  0.0025000000092310253  0.0075000021046737406  0.9990485512362199  1.0000
  Mn  Mn5       1.0  5.00000009889952e-11  0.005000002326218345  0.9995960423216105  1.0000
  Mn  Mn6       1.0  0.002500000932333543  0.0075000021046737406  0.9998882037274655  1.0000
  Mn  Mn7       1.0  5.00000009889952e-11  0.005000002326218345  0.9990485512362199  1.0000
  Mn  Mn8       1.0  0.0025000000092310253  0.0075000021046737406  0.9993222966359693  1.0000
  Co  Co17      1.0  0.007499999796917446  2.500000138859206e-09  0.9997295046182183  1.0000
  Co  Co18      1.0  0.005000000018462051  0.0024999993169041368  0.9997295269177786  1.0000
  Co  Co19      1.0  0.005000000941564568  0.0024999990861285072  0.0  1.0000
  Co  Co20      1.0  0.007499999796917446  2.6000000651830496e-09  0.9999999067992736  1.0000
  Co  Co21      1.0  0.0075000002584687045  2.0999999933942504e-09  0.9991854239360947  1.0000
  Co  Co22      1.0  0.005000000018462051  0.00250000208621169  0.9991854239360947  1.0000
  Co  Co23      1.0  0.005000000018462051  0.00250000208621169  0.999459169335844  1.0000
  Co  Co24      1.0  0.0075000002584687045  2.0999999933942504e-09  0.999459169335844  1.0000
  Ga  Ga9       1.0  0.005000000018462051  0.009999998190719065  0.9998704292625561  1.0000
  Ga  Ga10      1.0  0.0075000002584687045  0.00250000208621169  0.9995960423216105  1.0000
  Ga  Ga11      1.0  0.005000000018462051  2.0999999933942504e-09  0.9993222966359693  1.0000
  Ga  Ga12      1.0  0.0075000002584687045  0.00250000208621169  0.9990485512362199  1.0000
  Mn  Mn9       1.0  0.005000000018462051  2.0999999933942504e-09  0.9995960423216105  1.0000
  Mn  Mn10      1.0  0.0075000007200199635  0.00250000208621169  0.9998882037274655  1.0000
  Mn  Mn11      1.0  0.005000000018462051  2.0999999933942504e-09  0.9990485512362199  1.0000
  Mn  Mn12      1.0  0.0075000002584687045  0.00250000208621169  0.9993222966359693  1.0000
  Co  Co25      1.0  0.007499999796917446  0.005000002787769604  0.9997295046182183  1.0000
  Co  Co26      1.0  0.005000000018462051  0.007499999335366187  0.9997295269177786  1.0000
  Co  Co27      1.0  0.005000000941564568  0.007499998873814928  0.0  1.0000
  Co  Co28      1.0  0.007499999796917446  0.005000002787769604  0.9999999067992736  1.0000
  Co  Co29      1.0  0.0075000002584687045  0.005000002326218345  0.9991854239360947  1.0000
  Co  Co30      1.0  0.005000000018462051  0.0075000021046737406  0.9991854239360947  1.0000
  Co  Co31      1.0  0.005000000018462051  0.0075000021046737406  0.999459169335844  1.0000
  Co  Co32      1.0  0.0075000002584687045  0.005000002326218345  0.999459169335844  1.0000
  Ga  Ga13      1.0  0.005000000018462051  0.0049999981722570145  0.9998704292625561  1.0000
  Ga  Ga14      1.0  0.0075000002584687045  0.0075000021046737406  0.9995960423216105  1.0000
  Ga  Ga15      1.0  0.005000000018462051  0.005000002326218345  0.9993222966359693  1.0000
  Ga  Ga16      1.0  0.0075000002584687045  0.0075000021046737406  0.9990485512362199  1.0000
  Mn  Mn13      1.0  0.005000000018462051  0.005000002326218345  0.9995960423216105  1.0000
  Mn  Mn14      1.0  0.0075000007200199635  0.0075000021046737406  0.9998882037274655  1.0000
  Mn  Mn15      1.0  0.005000000018462051  0.005000002326218345  0.9990485512362199  1.0000
  Mn  Mn16      1.0  0.0075000002584687045  0.0075000021046737406  0.9993222966359693  1.0000
