data_image0
_chemical_formula_structural       CONi10As20
_chemical_formula_sum              "C1 O1 Ni10 As20"
_cell_length_a       6.916186172785547
_cell_length_b       10.26640057624969
_cell_length_c       103.67630004882812
_cell_angle_alpha    112.36196077653685
_cell_angle_beta     111.57688675097906
_cell_angle_gamma    79.27779201458343

_space_group_name_H-M_alt    "P 1"
_space_group_IT_number       1

loop_
  _space_group_symop_operation_xyz
  'x, y, z'

loop_
  _atom_site_type_symbol
  _atom_site_label
  _atom_site_symmetry_multiplicity
  _atom_site_fract_x
  _atom_site_fract_y
  _atom_site_fract_z
  _atom_site_occupancy
  C   C1        1.0  0.0071673781146977065  0.0050616126336178995  0.00036652471132659676  1.0000
  O   O1        1.0  0.0071673781146977065  0.0050616126336178995  0.00048226981713229636  1.0000
  Ni  Ni1       1.0  0.008945636816197994  0.004241133448355912  0.999751573882476  1.0000
  Ni  Ni2       1.0  0.0069456370435807095  0.008241133267450525  0.9995891630338366  1.0000
  Ni  Ni3       1.0  0.0009456370731636646  0.00024113345373166504  0.9999139849203563  1.0000
  Ni  Ni4       1.0  0.004164210179272616  0.0016932624803577953  0.00018746445509548517  1.0000
  Ni  Ni5       1.0  0.002815312399348345  0.006214487099424875  6.644784969126351e-05  1.0000
  Ni  Ni6       1.0  0.008675827503240528  0.004054082049899545  0.00012760318766231898  1.0000
  Ni  Ni7       1.0  0.006923371519336774  0.008292201717427573  0.9999993927477832  1.0000
  Ni  Ni8       1.0  0.0009456370731636646  0.00024113345373166504  0.999507957767356  1.0000
  Ni  Ni9       1.0  0.004945637270963424  0.0022411333533560317  0.9998327794057403  1.0000
  Ni  Ni10      1.0  0.002945636918288193  0.0062411335858988  0.999670368558447  1.0000
  As  As1       1.0  0.006319782363001265  0.005806314908984876  0.9998377063019882  1.0000
  As  As2       1.0  0.004319782590383979  0.009806314728079489  0.9996752954533488  1.0000
  As  As3       1.0  0.008174122624769443  0.0016806585223677045  2.0337027334012477e-06  1.0000
  As  As4       1.0  0.0023197825277377214  0.003806314824524593  0.9995128846655342  1.0000
  As  As5       1.0  0.00042850830890314885  0.008001516330337816  0.00015824655506211673  1.0000
  As  As6       1.0  0.001571491681235866  0.002675952035539754  0.9996654413713846  1.0000
  As  As7       1.0  0.009571491496777438  0.00667595180682156  0.9995030306143243  1.0000
  As  As8       1.0  0.0035714915988676378  0.008675952336733411  0.9998278521706223  1.0000
  As  As9       1.0  0.00734683644192419  0.0008099064669811307  0.0001693380545847663  1.0000
  As  As10      1.0  0.005472367009325921  0.004682085850008625  0.9999866388539455  1.0000
  As  As11      1.0  0.0011476583493457168  0.0061505631882383584  0.9998237288357257  1.0000
  As  As12      1.0  0.009147658237394532  0.00015056327274227998  0.9996613181497357  1.0000
  As  As13      1.0  0.0030290199579470056  0.002152026647018659  0.9999772687575634  1.0000
  As  As14      1.0  0.007147658464777248  0.004150563042790773  0.9994989072992484  1.0000
  As  As15      1.0  0.005179003863427222  0.007992595479643691  0.00014769809205297744  1.0000
  As  As16      1.0  0.0007239608960293373  0.004358092419818059  1.2052583817653054e-05  1.0000
  As  As17      1.0  0.008743615975059401  0.008331703651936471  0.9998418296305003  1.0000
  As  As18      1.0  0.0023645943242712876  0.009849436284921236  0.0001536911522275376  1.0000
  As  As19      1.0  0.006743615622384171  0.0023317037589211708  0.9996794188359677  1.0000
  As  As20      1.0  0.004743615849766885  0.006331703578015784  0.9995170079873282  1.0000
