data_image0
_chemical_formula_structural       CONa6Sb2Se8
_chemical_formula_sum              "C1 O1 Na6 Sb2 Se8"
_cell_length_a       7.645949840545654
_cell_length_b       7.645949840545654
_cell_length_c       100.58380126953125
_cell_angle_alpha    90.0
_cell_angle_beta     90.0
_cell_angle_gamma    90.0

_space_group_name_H-M_alt    "P 1"
_space_group_IT_number       1

loop_
  _space_group_symop_operation_xyz
  'x, y, z'

loop_
  _atom_site_type_symbol
  _atom_site_label
  _atom_site_symmetry_multiplicity
  _atom_site_fract_x
  _atom_site_fract_y
  _atom_site_fract_z
  _atom_site_occupancy
  C   C1        1.0  0.006494780267898677  0.008994915189969964  0.00010172702583185929  1.0000
  O   O1        1.0  0.006494780267898677  0.008994915189969964  0.0002210307722327234  1.0000
  Na  Na1       1.0  7.994999763667733e-08  2.727499841264551e-07  0.9994573862332672  1.0000
  Na  Na2       1.0  0.004999992613684094  5.456499656819874e-07  0.9998590555719479  1.0000
  Na  Na3       1.0  0.005000079826780875  2.727499841264551e-07  0.9994573862332672  1.0000
  Na  Na4       1.0  0.00500012513861328  0.0050008447684677226  0.9998177765598405  1.0000
  Na  Na5       1.0  7.994999763667733e-08  0.005000272767486602  0.9994573862332672  1.0000
  Na  Na6       1.0  0.009999919939351603  0.005000385803455614  0.9998590620904039  1.0000
  Sb  Sb1       1.0  0.009999789363318433  0.009999726998645875  0.9998720545585768  1.0000
  Sb  Sb2       1.0  0.005000079826780875  0.005000272767486602  0.9994573862332672  1.0000
  Se  Se1       1.0  0.0020102006123789884  0.0020099510318827537  0.0  1.0000
  Se  Se2       1.0  0.00191920726635434  0.00808079184689797  0.999724110790145  1.0000
  Se  Se3       1.0  0.0030771747738454285  0.0030773677145511558  0.9996035572779345  1.0000
  Se  Se4       1.0  0.0030771747738454285  0.006923177820422047  0.9993112151886  1.0000
  Se  Se5       1.0  0.00692298487971632  0.006923177820422047  0.9996035572779345  1.0000
  Se  Se6       1.0  0.00692298487971632  0.0030773677145511558  0.9993112151886  1.0000
  Se  Se7       1.0  0.007989567434889254  0.007989283870518716  0.9999999988148262  1.0000
  Se  Se8       1.0  0.008081009148803917  0.001919057810391002  0.9997241291603394  1.0000
