data_image0
_chemical_formula_structural       COGa18Rh4Ga18Rh4
_chemical_formula_sum              "C1 O1 Ga36 Rh8"
_cell_length_a       8.966681254492087
_cell_length_b       6.497387409210205
_cell_length_c       109.22615051269531
_cell_angle_alpha    90.0
_cell_angle_beta     86.92953127587957
_cell_angle_gamma    90.0

_space_group_name_H-M_alt    "P 1"
_space_group_IT_number       1

loop_
  _space_group_symop_operation_xyz
  'x, y, z'

loop_
  _atom_site_type_symbol
  _atom_site_label
  _atom_site_symmetry_multiplicity
  _atom_site_fract_x
  _atom_site_fract_y
  _atom_site_fract_z
  _atom_site_occupancy
  C   C1        1.0  0.0009975017912729907  0.0015720127416343993  0.00011201143641725682  1.0000
  O   O1        1.0  0.0009975017912729907  0.0015720127416343993  0.00022187545947737839  1.0000
  Ga  Ga1       1.0  0.004432596414735339  0.007613042293785363  0.9996098741839755  1.0000
  Ga  Ga2       1.0  0.009432596531231158  0.002386957981423614  0.999609874258497  1.0000
  Ga  Ga3       1.0  0.00017699845500000186  0.006345229071659941  0.9994712340625855  1.0000
  Ga  Ga4       1.0  0.0051769984544799315  0.003654771203549036  0.9994712341376214  1.0000
  Ga  Ga5       1.0  0.002064517677621374  0.0076073082000753115  0.9998290199215467  1.0000
  Ga  Ga6       1.0  0.007064517794117192  0.0023926919317956564  0.9998290199960681  1.0000
  Ga  Ga7       1.0  0.007480854711048298  0.007400731754984163  0.9999491650878102  1.0000
  Ga  Ga8       1.0  0.00248085459455248  0.0025992685202248142  0.9999491650132888  1.0000
  Ga  Ga9       1.0  0.004823001362455211  0.005526521925825823  0.9998306762361826  1.0000
  Ga  Ga10      1.0  0.00982300147895103  0.004473478349383154  0.999830676310704  1.0000
  Ga  Ga11      1.0  0.004721381227813205  0.009455243025488974  0.9999572527684336  1.0000
  Ga  Ga12      1.0  0.009721381344309023  0.0005447569988784867  0.999957252842955  1.0000
  Ga  Ga13      1.0  0.0024131120680321735  0.004522783757701906  0.9996444218396258  1.0000
  Ga  Ga14      1.0  0.00741311239255624  0.00547721651750707  0.9996444219132324  1.0000
  Ga  Ga15      1.0  0.006906254896152831  0.0002785061097356166  0.9995265580699952  1.0000
  Ga  Ga16      1.0  0.0019062549876852602  0.009721494523818382  0.9995265579945591  1.0000
  Ga  Ga17      1.0  0.0043494516848038  0.0015672391559223247  0.999720650604398  1.0000
  Ga  Ga18      1.0  0.009349451801299619  0.008432760832610634  0.9997206506789194  1.0000
  Rh  Rh1       1.0  0.0030539925949532786  0.006232615278252055  0.9994340273281755  1.0000
  Rh  Rh2       1.0  0.00805399250342085  0.0037673849969569223  0.9994340274036118  1.0000
  Rh  Rh3       1.0  0.0064251329902950865  0.008791954989351614  0.9997455073305412  1.0000
  Rh  Rh4       1.0  0.0014251331858416388  0.0012080454291953718  0.9997455072546477  1.0000
  Ga  Ga19      1.0  0.004432596414735339  0.007613042293785363  0.999011327890069  1.0000
  Ga  Ga20      1.0  0.009432596531231158  0.002386957981423614  0.9990113279645905  1.0000
  Ga  Ga21      1.0  0.00017699845500000186  0.006345229071659941  0.9988726874958292  1.0000
  Ga  Ga22      1.0  0.0051769984544799315  0.003654771203549036  0.9988726875708652  1.0000
  Ga  Ga23      1.0  0.002064517677621374  0.0076073082000753115  0.9992304733547905  1.0000
  Ga  Ga24      1.0  0.007064517794117192  0.0023926919317956564  0.9992304734293119  1.0000
  Ga  Ga25      1.0  0.007480854711048298  0.007400731754984163  0.9993506185210539  1.0000
  Ga  Ga26      1.0  0.00248085459455248  0.0025992685202248142  0.9993506184465325  1.0000
  Ga  Ga27      1.0  0.004823001362455211  0.005526521925825823  0.9992321302151258  1.0000
  Ga  Ga28      1.0  0.00982300147895103  0.004473478349383154  0.9992321302896472  1.0000
  Ga  Ga29      1.0  0.004721381227813205  0.009455243025488974  0.9993587062016773  1.0000
  Ga  Ga30      1.0  0.009721381344309023  0.0005447569988784867  0.9993587062761988  1.0000
  Ga  Ga31      1.0  0.0024131120680321735  0.004522783757701906  0.9990458755457192  1.0000
  Ga  Ga32      1.0  0.00741311239255624  0.00547721651750707  0.9990458756193259  1.0000
  Ga  Ga33      1.0  0.006906254896152831  0.0002785061097356166  0.9989280117760887  1.0000
  Ga  Ga34      1.0  0.0019062549876852602  0.009721494523818382  0.9989280117006526  1.0000
  Ga  Ga35      1.0  0.0043494516848038  0.0015672391559223247  0.9991221045833412  1.0000
  Ga  Ga36      1.0  0.009349451801299619  0.008432760832610634  0.9991221046578626  1.0000
  Rh  Rh5       1.0  0.0030539925949532786  0.006232615278252055  0.998835481034269  1.0000
  Rh  Rh6       1.0  0.00805399250342085  0.0037673849969569223  0.9988354811097052  1.0000
  Rh  Rh7       1.0  0.0064251329902950865  0.008791954989351614  0.999146960763785  1.0000
  Rh  Rh8       1.0  0.0014251331858416388  0.0012080454291953718  0.9991469606878914  1.0000
