data_image0
_chemical_formula_structural       COCa12Si12
_chemical_formula_sum              "C1 O1 Ca12 Si12"
_cell_length_a       5.872690183894948
_cell_length_b       9.122675573490415
_cell_length_c       103.58013153076172
_cell_angle_alpha    89.43051018122496
_cell_angle_beta     88.49616525901588
_cell_angle_gamma    78.59587575074545

_space_group_name_H-M_alt    "P 1"
_space_group_IT_number       1

loop_
  _space_group_symop_operation_xyz
  'x, y, z'

loop_
  _atom_site_type_symbol
  _atom_site_label
  _atom_site_symmetry_multiplicity
  _atom_site_fract_x
  _atom_site_fract_y
  _atom_site_fract_z
  _atom_site_occupancy
  C   C1        1.0  0.0028893942912346605  0.00859853238960845  9.71122508888329e-05  1.0000
  O   O1        1.0  0.0028893942912346605  0.00859853238960845  0.0002129642442847525  1.0000
  Ca  Ca1       1.0  0.0008963515826056645  0.008102581090664775  0.9992161226817746  1.0000
  Ca  Ca2       1.0  0.002007462645665363  0.004213692248063049  0.9993962307935681  1.0000
  Ca  Ca3       1.0  0.009785240088045218  0.001991469933266502  0.9990360145907637  1.0000
  Ca  Ca4       1.0  0.0043005006900718075  0.004552062559654894  0.9990458364666555  1.0000
  Ca  Ca5       1.0  0.00541161181706848  0.0006631735087609379  0.9992259445785362  1.0000
  Ca  Ca6       1.0  0.0065227227663883745  0.006774284457866981  0.9994060527367168  1.0000
  Ca  Ca7       1.0  0.004273497523301398  0.00636848161962706  0.9997391830258757  1.0000
  Ca  Ca8       1.0  0.005316333433996345  0.0023544464309043014  0.9999261155786131  1.0000
  Ca  Ca9       1.0  0.0031185737406935485  0.00032480330131520713  0.9995763391931276  1.0000
  Ca  Ca10      1.0  0.007633833829448073  0.0028853956152652543  0.9995861611362328  1.0000
  Ca  Ca11      1.0  0.008776355588057231  0.008961704057066072  0.9997743092492567  1.0000
  Ca  Ca12      1.0  0.009553397035102693  0.005323690291782422  0.9999422096886977  1.0000
  Si  Si1       1.0  0.006093203648329326  0.007452974279742131  0.9991108231995431  1.0000
  Si  Si2       1.0  0.007204314711389026  0.0035640854371404044  0.9992909313113367  1.0000
  Si  Si3       1.0  0.00831542623133187  0.009675196594538677  0.9994710397562083  1.0000
  Si  Si4       1.0  0.00910364877760449  0.0052016689539930785  0.9991511360151997  1.0000
  Si  Si5       1.0  0.00021475949031032229  0.001312780007245237  0.9993312440614295  1.0000
  Si  Si6       1.0  0.007992537714544792  0.009090557796594805  0.9989710276156837  1.0000
  Si  Si7       1.0  0.009426537294391569  0.005786307751936951  0.9996511475802795  1.0000
  Si  Si8       1.0  0.0005309344661545254  0.001951135392615857  0.999840957995618  1.0000
  Si  Si9       1.0  0.0023938501507038785  0.007644530645952532  0.9999897461199907  1.0000
  Si  Si10      1.0  0.0024369814464444486  0.003535002426187899  0.9996914603312139  1.0000
  Si  Si11      1.0  0.0035340292783550666  0.00957131292758229  0.9998699216545841  1.0000
  Si  Si12      1.0  0.0013258705112586988  0.007423890852205165  0.9995113525073172  1.0000
