data_image0
_chemical_formula_structural       HIn8Pt12
_chemical_formula_sum              "H1 In8 Pt12"
_cell_length_a       5.6991190910339355
_cell_length_b       5.699119306606227
_cell_length_c       112.01283264160156
_cell_angle_alpha    90.0
_cell_angle_beta     90.0
_cell_angle_gamma    119.99999874874108

_space_group_name_H-M_alt    "P 1"
_space_group_IT_number       1

loop_
  _space_group_symop_operation_xyz
  'x, y, z'

loop_
  _atom_site_type_symbol
  _atom_site_label
  _atom_site_symmetry_multiplicity
  _atom_site_fract_x
  _atom_site_fract_y
  _atom_site_fract_z
  _atom_site_occupancy
  H   H1        1.0  0.010000000041096881  0.009999999637704472  0.0001099914947105065  1.0000
  In  In1       1.0  1.0000000146615481e-10  9.999999558703167e-11  0.999180784381844  1.0000
  In  In2       1.0  5.770986728687964e-10  0.009999999637704472  0.9998050773601791  1.0000
  In  In3       1.0  0.0033333332067193005  0.006666666425136315  0.999180784381844  1.0000
  In  In4       1.0  0.006666665760463682  0.0033333343447416812  0.9998040578118229  1.0000
  In  In5       1.0  0.0033333322519369358  0.006666664915571616  2.172606463154995e-05  1.0000
  In  In6       1.0  0.0033333332067193005  0.006666666425136315  0.9995998522800013  1.0000
  In  In7       1.0  0.006666666828528724  0.0033333332125681575  0.9989747329140893  1.0000
  In  In8       1.0  0.006666666828528724  0.0033333332125681575  0.9993868358495985  1.0000
  Pt  Pt1       1.0  0.0016596885018572986  0.003319376909538961  0.9989801291770747  1.0000
  Pt  Pt2       1.0  0.0066806233816011605  0.008340311749021754  0.9989801291770747  1.0000
  Pt  Pt3       1.0  0.0016596883674205927  0.008340311749021754  0.9989801291770747  1.0000
  Pt  Pt4       1.0  0.0066806233816011605  0.008340311749021754  0.9993814395866132  1.0000
  Pt  Pt5       1.0  0.0016596885018572986  0.003319376909538961  0.9993814395866132  1.0000
  Pt  Pt6       1.0  0.0016596883674205927  0.008340311749021754  0.9993814395866132  1.0000
  Pt  Pt7       1.0  0.00833327871309248  0.006666556981695671  0.0  1.0000
  Pt  Pt8       1.0  0.0033334430167472648  0.0016667207619176388  0.0  1.0000
  Pt  Pt9       1.0  0.00833327842214223  0.0016667205732220516  0.9999999994678767  1.0000
  Pt  Pt10      1.0  0.003319376942539101  0.0016596884547694804  0.9996052485429866  1.0000
  Pt  Pt11      1.0  0.008340311775022988  0.006680623105556686  0.9996052485429866  1.0000
  Pt  Pt12      1.0  0.008340311793304488  0.0016596884547694804  0.9996052485429866  1.0000
