data_image0
_chemical_formula_structural       In12Ir4H
_chemical_formula_sum              "In12 Ir4 H1"
_cell_length_a       7.154809474945068
_cell_length_b       7.360742568969727
_cell_length_c       98.6192398071289
_cell_angle_alpha    90.0
_cell_angle_beta     90.0
_cell_angle_gamma    90.0

_space_group_name_H-M_alt    "P 1"
_space_group_IT_number       1

loop_
  _space_group_symop_operation_xyz
  'x, y, z'

loop_
  _atom_site_type_symbol
  _atom_site_label
  _atom_site_symmetry_multiplicity
  _atom_site_fract_x
  _atom_site_fract_y
  _atom_site_fract_z
  _atom_site_occupancy
  In  In1       1.0  0.004062664812689311  0.0025568303926914973  0.9994051235928699  1.0000
  In  In2       1.0  0.009419951679547834  0.007483548550794489  2.051244810838373e-05  1.0000
  In  In3       1.0  0.009419951679547834  0.0025164527751940905  2.051244810838373e-05  1.0000
  In  In4       1.0  0.005813703833452974  0.00999999955462979  0.9999320730271825  1.0000
  In  In5       1.0  0.002224230132822179  0.0023788513469873798  0.9997637269866034  1.0000
  In  In6       1.0  0.0022242277898099154  0.0076211482076424105  0.9997637272887993  1.0000
  In  In7       1.0  0.0005800479611902866  1.0000000002780644e-10  0.999515209300634  1.0000
  In  In8       1.0  0.007097431401266122  0.0025568303926914973  0.9996252953105939  1.0000
  In  In9       1.0  0.007097431401266122  0.007443169668040804  0.9996252953105939  1.0000
  In  In10      1.0  0.0057604424786782136  0.005000000789519917  0.9999009879559927  1.0000
  In  In11      1.0  0.004062664812689311  0.007443169668040804  0.9994051235928699  1.0000
  In  In12      1.0  0.0005800479611902866  0.005000000283417406  0.999515209300634  1.0000
  Ir  Ir1       1.0  0.0021463262767329994  0.00999999955462979  0.9999617450307016  1.0000
  Ir  Ir2       1.0  0.004029342231942569  0.005000000283417406  0.999627712877182  1.0000
  Ir  Ir3       1.0  0.007130753721678168  0.005000000283417406  0.9994027060262818  1.0000
  Ir  Ir4       1.0  0.008929776852595014  0.00999999955462979  0.9997656380729913  1.0000
  H   H1        1.0  0.004018966852970228  0.0011894252939168065  0.0  1.0000
