data_image0
_chemical_formula_structural       COPt6V3Pt6V3
_chemical_formula_sum              "C1 O1 Pt12 V6"
_cell_length_a       4.841608108181127
_cell_length_b       5.500377648380815
_cell_length_c       101.47459411621094
_cell_angle_alpha    92.50399377485377
_cell_angle_beta     91.30626597218573
_cell_angle_gamma    73.49995695093541

_space_group_name_H-M_alt    "P 1"
_space_group_IT_number       1

loop_
  _space_group_symop_operation_xyz
  'x, y, z'

loop_
  _atom_site_type_symbol
  _atom_site_label
  _atom_site_symmetry_multiplicity
  _atom_site_fract_x
  _atom_site_fract_y
  _atom_site_fract_z
  _atom_site_occupancy
  C   C1        1.0  0.00488166789716387  0.0031152635012905534  0.00017728175480555917  1.0000
  O   O1        1.0  0.00488166789716387  0.0031152635012905534  0.00029553760809143356  1.0000
  Pt  Pt1       1.0  0.004841202926644442  0.00048766466900866326  6.420568883095531e-06  1.0000
  Pt  Pt2       1.0  0.009497377042987459  0.001734557402570661  0.9998959200165558  1.0000
  Pt  Pt3       1.0  0.008174536372331427  0.0043765532353327915  0.9996617843336778  1.0000
  Pt  Pt4       1.0  0.002830710151613486  0.0006234464360534825  0.9995512842064758  1.0000
  Pt  Pt5       1.0  0.0015078694809574555  0.0032654426925195533  0.9993171488182937  1.0000
  Pt  Pt6       1.0  0.006164043597300472  0.004512334917636823  0.9992066482647622  1.0000
  V   V1        1.0  0.003835956338497441  0.003055555743278359  0.9997788520472297  1.0000
  V   V2        1.0  0.007169289784184427  0.0019444444519670118  0.999434216493728  1.0000
  V   V3        1.0  0.0005026231435998584  0.0008333333381120727  0.9990895806835719  1.0000
  Pt  Pt7       1.0  0.004841202926644442  0.005487664865607291  6.4201816746318105e-06  1.0000
  Pt  Pt8       1.0  0.009497377042987459  0.006734557090724561  0.9998959196281433  1.0000
  Pt  Pt9       1.0  0.008174536372331427  0.009376553940376148  0.9996617845350584  1.0000
  Pt  Pt10      1.0  0.002830710151613486  0.005623446547911323  0.9995512841127591  1.0000
  Pt  Pt11      1.0  0.0015078694809574555  0.008265442719636607  0.9993171487243763  1.0000
  Pt  Pt12      1.0  0.006164043597300472  0.009512334944753875  0.9992066484645373  1.0000
  V   V4        1.0  0.003835956338497441  0.00805555543143226  0.9997788522462021  1.0000
  V   V5        1.0  0.007169289784184427  0.006944444479084064  0.9994342163998107  1.0000
  V   V6        1.0  0.0005026231435998584  0.005833333195747549  0.9990895805892532  1.0000
