data_image0
_chemical_formula_structural       HAl8Rh8Al8Rh8
_chemical_formula_sum              "H1 Al16 Rh16"
_cell_length_a       8.539102554321289
_cell_length_b       5.22911112192695
_cell_length_c       104.55436706542969
_cell_angle_alpha    92.89141691835289
_cell_angle_beta     90.0
_cell_angle_gamma    90.0

_space_group_name_H-M_alt    "P 1"
_space_group_IT_number       1

loop_
  _space_group_symop_operation_xyz
  'x, y, z'

loop_
  _atom_site_type_symbol
  _atom_site_label
  _atom_site_symmetry_multiplicity
  _atom_site_fract_x
  _atom_site_fract_y
  _atom_site_fract_z
  _atom_site_occupancy
  H   H1        1.0  0.0012500001701423783  0.009648322084533995  8.254033862775764e-05  1.0000
  Al  Al1       1.0  1.5000000358174341e-10  0.0007088213560041836  0.9995498477027182  1.0000
  Al  Al2       1.0  0.0025000003402847566  0.0003516784549156089  0.9991957496190375  1.0000
  Al  Al3       1.0  1.5000000358174341e-10  0.007137392996024572  0.9993137823693131  1.0000
  Al  Al4       1.0  0.0025000003402847566  0.00392310722059699  0.9994318151786488  1.0000
  Al  Al5       1.0  1.5000000358174341e-10  0.00781171962595916  1.3317077998306854e-05  1.0000
  Al  Al6       1.0  0.0025000003402847566  0.007494535384413108  0.9996678807367416  1.0000
  Al  Al7       1.0  1.5000000358174341e-10  0.004275608024082656  0.9997863336738186  1.0000
  Al  Al8       1.0  0.002500000122153502  0.0011503284019400526  0.9999156640342703  1.0000
  Rh  Rh1       1.0  1.5000000358174341e-10  0.002137392782028034  0.9993137823987025  1.0000
  Rh  Rh2       1.0  0.0025000003402847566  0.00892310707793263  0.9994318151483595  1.0000
  Rh  Rh3       1.0  1.5000000358174341e-10  0.005708821302505049  0.9995498476726539  1.0000
  Rh  Rh4       1.0  0.0025000003402847566  0.005351678557455616  0.9991957495893669  1.0000
  Rh  Rh5       1.0  1.5000000358174341e-10  0.00927937564712553  0.9997812078432647  1.0000
  Rh  Rh6       1.0  0.0025000003402847566  0.0061745419675172655  0.9999029421249621  1.0000
  Rh  Rh7       1.0  0.010000000488614009  0.0028411148680343268  7.167673606907509e-06  1.0000
  Rh  Rh8       1.0  0.0025000003402847566  0.0024945355270774667  0.999667880767031  1.0000
  Al  Al9       1.0  0.005000000244307004  0.0007088213560041836  0.9995498477027182  1.0000
  Al  Al10      1.0  0.007500000802723015  0.0003516784549156089  0.9991957496190375  1.0000
  Al  Al11      1.0  0.005000000244307004  0.007137392996024572  0.9993137823693131  1.0000
  Al  Al12      1.0  0.007500000802723015  0.00392310722059699  0.9994318151786488  1.0000
  Al  Al13      1.0  0.005000000244307004  0.00781171962595916  1.3317077998306854e-05  1.0000
  Al  Al14      1.0  0.007500000802723015  0.007494535384413108  0.9996678807367416  1.0000
  Al  Al15      1.0  0.005000000244307004  0.004275608024082656  0.9997863336738186  1.0000
  Al  Al16      1.0  0.007499999930197999  0.0011503284019400526  0.9999156640342703  1.0000
  Rh  Rh9       1.0  0.005000000244307004  0.002137392782028034  0.9993137823987025  1.0000
  Rh  Rh10      1.0  0.007500000802723015  0.00892310707793263  0.9994318151483595  1.0000
  Rh  Rh11      1.0  0.005000000244307004  0.005708821302505049  0.9995498476726539  1.0000
  Rh  Rh12      1.0  0.007500000802723015  0.005351678557455616  0.9991957495893669  1.0000
  Rh  Rh13      1.0  0.005000000244307004  0.00927937564712553  0.9997812078432647  1.0000
  Rh  Rh14      1.0  0.007500000802723015  0.0061745419675172655  0.9999029421249621  1.0000
  Rh  Rh15      1.0  0.005000000244307004  0.0028411148680343268  7.167673606907509e-06  1.0000
  Rh  Rh16      1.0  0.007500000802723015  0.0024945355270774667  0.999667880767031  1.0000
