data_image0
_chemical_formula_structural       CONa10Au2Se24
_chemical_formula_sum              "C1 O1 Na10 Au2 Se24"
_cell_length_a       7.301972272664001
_cell_length_b       17.383230209350586
_cell_length_c       104.2462387084961
_cell_angle_alpha    90.0
_cell_angle_beta     106.54008158355458
_cell_angle_gamma    90.0

_space_group_name_H-M_alt    "P 1"
_space_group_IT_number       1

loop_
  _space_group_symop_operation_xyz
  'x, y, z'

loop_
  _atom_site_type_symbol
  _atom_site_label
  _atom_site_symmetry_multiplicity
  _atom_site_fract_x
  _atom_site_fract_y
  _atom_site_fract_z
  _atom_site_occupancy
  C   C1        1.0  0.0016142851624117863  0.003752048640366898  0.00011861938170533143  1.0000
  O   O1        1.0  0.0016142851624117863  0.003752048640366898  0.00023373111007766927  1.0000
  Na  Na1       1.0  0.007613272812535848  0.0034106146511550207  0.9991115695652734  1.0000
  Na  Na2       1.0  0.001671686821239165  0.008494915797647508  0.9996783015190188  1.0000
  Na  Na3       1.0  0.007637340394301188  0.009256334220319715  0.9993836780910982  1.0000
  Na  Na4       1.0  0.002040001104289177  0.0042563339288667025  0.9994128287565902  1.0000
  Na  Na5       1.0  0.0024718393167751746  0.001162626638733993  0.9998099888477748  1.0000
  Na  Na6       1.0  0.006785042092504393  0.0060110585056330395  0.9997741493570877  1.0000
  Na  Na7       1.0  0.0064741236141058  0.007490883315490466  0.9991627005165147  1.0000
  Na  Na8       1.0  0.00451479478418212  0.002950711655906816  0.9997152235009541  1.0000
  Na  Na9       1.0  0.008626346477501027  0.0012671657980658274  0.9993138878481449  1.0000
  Na  Na10      1.0  0.0010509946884657048  0.006267165553759626  0.9994826192787947  1.0000
  Au  Au1       1.0  0.002001038370091484  0.008378260015093564  0.9992677130184129  1.0000
  Au  Au2       1.0  0.007676303128498881  0.0033782599379442364  0.9995287941151594  1.0000
  Se  Se1       1.0  0.00030329630803689546  0.007579679618939108  6.048017711397748e-06  1.0000
  Se  Se2       1.0  0.009351625659107833  0.005335299409062216  0.9992239343673964  1.0000
  Se  Se3       1.0  0.0037208812436255474  0.007081703430938227  0.9993316913665072  1.0000
  Se  Se4       1.0  0.005956460121915364  0.0020817035680925854  0.9994648157644119  1.0000
  Se  Se5       1.0  0.00032115869612165564  0.009686782888435682  0.9991955805493997  1.0000
  Se  Se6       1.0  0.009234890197287517  0.004697534212880462  0.9996010445418572  1.0000
  Se  Se7       1.0  0.004088623547074421  0.008991135981250013  0.9994854859709705  1.0000
  Se  Se8       1.0  0.009696703786428217  0.0027963911434246173  0.9997491831199875  1.0000
  Se  Se9       1.0  0.0019935894633807713  0.004485758453728344  0.9997894621401808  1.0000
  Se  Se10      1.0  0.005588717818466491  0.003991136118404371  0.9993110208740648  1.0000
  Se  Se11      1.0  0.0061842413187211285  0.007396317956830172  0.9995361981688348  1.0000
  Se  Se12      1.0  0.003493100046819783  0.0023963178796808453  0.9992603086762005  1.0000
  Se  Se13      1.0  0.0092192148428591  0.008586471475349687  0.9998624858394654  1.0000
  Se  Se14      1.0  0.006213130080488064  0.0018382329367771075  0.9999149220351432  1.0000
  Se  Se15      1.0  0.0013746227824466615  0.006491754101655958  0.9998971928836252  1.0000
  Se  Se16      1.0  0.008168726074940808  0.0015909241264556605  0.9997721975205716  1.0000
  Se  Se17      1.0  0.002959661679209618  0.0003132169979833646  0.9994765660307671  1.0000
  Se  Se18      1.0  0.006717679686331293  0.005313217128708613  0.9993199408142682  1.0000
  Se  Se19      1.0  0.00887402122861297  0.007684410687221241  0.9994519405571741  1.0000
  Se  Se20      1.0  0.0008033200038784873  0.0026844103957682284  0.9993445665710919  1.0000
  Se  Se21      1.0  0.005097761609201337  0.009155452046227822  0.9991002892275878  1.0000
  Se  Se22      1.0  0.004571920897591039  0.004583608659278838  0.9996910933712926  1.0000
  Se  Se23      1.0  0.0032990208088153348  0.006947390310527344  0.9997667956494234  1.0000
  Se  Se24      1.0  0.00032571550685889727  0.00033529949264065375  0.9995725724736592  1.0000
