data_image0
_chemical_formula_structural       HV30Sn10
_chemical_formula_sum              "H1 V30 Sn10"
_cell_length_a       15.006023510427283
_cell_length_b       7.266481386199163
_cell_length_c       99.06592559814453
_cell_angle_alpha    85.05798951535004
_cell_angle_beta     81.51750389766985
_cell_angle_gamma    53.84092948201905

_space_group_name_H-M_alt    "P 1"
_space_group_IT_number       1

loop_
  _space_group_symop_operation_xyz
  'x, y, z'

loop_
  _atom_site_type_symbol
  _atom_site_label
  _atom_site_symmetry_multiplicity
  _atom_site_fract_x
  _atom_site_fract_y
  _atom_site_fract_z
  _atom_site_occupancy
  H   H1        1.0  0.006309426835395863  0.0007480792465412006  0.9998542971357078  1.0000
  V   V1        1.0  0.003345808073462576  0.0014022997077628135  0.9995311854330113  1.0000
  V   V2        1.0  0.007381760856679847  0.009299645011967617  0.9996658828338393  1.0000
  V   V3        1.0  0.009345808168519305  0.0034022995718779978  0.9993844855258313  1.0000
  V   V4        1.0  0.0014326379149572376  0.007501192332109764  0.999802958418549  1.0000
  V   V5        1.0  0.005345808057571197  0.005402299594737125  0.999237785766651  1.0000
  V   V6        1.0  0.0023853114668498233  0.006075659019512876  0.9995719261117452  1.0000
  V   V7        1.0  0.006461234705700886  0.004022618517771072  0.9996997723778827  1.0000
  V   V8        1.0  0.008345808328359364  0.007896549838303672  0.9994215825549501  1.0000
  V   V9        1.0  0.00034580820382833195  0.00189655024595812  0.9991281824244438  1.0000
  V   V10       1.0  0.004345808126679889  0.009896550178650688  0.9992748824949577  1.0000
  V   V11       1.0  0.0044554415241370975  0.005022225320452461  0.9996445710240185  1.0000
  V   V12       1.0  0.008389674632351586  0.003276085754727938  0.9997588386828495  1.0000
  V   V13       1.0  0.0005527077410566387  0.0067931003674609886  0.999502520483927  1.0000
  V   V14       1.0  0.002552707571531767  0.000793100616371492  0.9992091205118625  1.0000
  V   V15       1.0  0.006552707128483017  0.00879310007283223  0.9993558205935611  1.0000
  V   V16       1.0  0.005412486931713606  0.0003270700882360812  0.9996160454218058  1.0000
  V   V17       1.0  0.00965419179384666  0.008425612288343778  0.9997433742641058  1.0000
  V   V18       1.0  0.0015527075812165802  0.002298850101035313  0.9994654237556414  1.0000
  V   V19       1.0  0.0035527073596922057  0.006298849829265682  0.9991720237940456  1.0000
  V   V20       1.0  0.007552707881906304  0.004298850123894441  0.9993187238428637  1.0000
  V   V21       1.0  0.004447133438343272  0.008525384761792444  0.9997482983991877  1.0000
  V   V22       1.0  0.008449257527716532  0.006091950592951553  0.9991871999607731  1.0000
  V   V23       1.0  0.0004387755945970898  0.00019361099907245786  0.9996358733337601  1.0000
  V   V24       1.0  0.00244925798002284  0.004091950570092425  0.9993338998567262  1.0000
  V   V25       1.0  0.006449257588973594  0.0020919505472332977  0.9994805999279561  1.0000
  V   V26       1.0  0.0034492579788723073  0.008103449709593575  0.9994064063882647  1.0000
  V   V27       1.0  0.007478978943724932  0.00602502097147189  0.9995573132775925  1.0000
  V   V28       1.0  0.00944925773734539  0.00010344969752903596  0.9992597064818061  1.0000
  V   V29       1.0  0.0015591436254712057  0.004256491524973262  0.9996754051429717  1.0000
  V   V30       1.0  0.005583247475996936  0.002189961121652499  0.9997901104463978  1.0000
  Sn  Sn1       1.0  0.002425346812935547  0.009498236225252098  0.9997024444943079  1.0000
  Sn  Sn2       1.0  0.006395944026831195  0.007327438831208931  0.999846414907374  1.0000
  Sn  Sn3       1.0  0.008449257230066915  0.0012643668570960706  0.999541303223191  1.0000
  Sn  Sn4       1.0  0.0004492579547145937  0.005264366664698411  0.9992479030835194  1.0000
  Sn  Sn5       1.0  0.004449257598433321  0.00326436695932717  0.9993946031519664  1.0000
  Sn  Sn6       1.0  0.0054492578786812145  0.00693103361498759  0.9994924031642756  1.0000
  Sn  Sn7       1.0  0.009509979967984285  0.0049487211598067205  0.9996515774233447  1.0000
  Sn  Sn8       1.0  0.0014492578584644714  0.008931033320358831  0.999345703104241  1.0000
  Sn  Sn9       1.0  0.003416902692428075  0.0030919129363482403  0.9998014003980611  1.0000
  Sn  Sn10      1.0  0.007449257571571871  0.0009310334670382349  0.999199003197793  1.0000
