data_image0
_chemical_formula_structural       COGe24Pt12
_chemical_formula_sum              "C1 O1 Ge24 Pt12"
_cell_length_a       9.145357126437007
_cell_length_b       8.638073273379872
_cell_length_c       101.25285339355469
_cell_angle_alpha    88.8506589495123
_cell_angle_beta     86.87200852163353
_cell_angle_gamma    93.93051508067451

_space_group_name_H-M_alt    "P 1"
_space_group_IT_number       1

loop_
  _space_group_symop_operation_xyz
  'x, y, z'

loop_
  _atom_site_type_symbol
  _atom_site_label
  _atom_site_symmetry_multiplicity
  _atom_site_fract_x
  _atom_site_fract_y
  _atom_site_fract_z
  _atom_site_occupancy
  C   C1        1.0  0.0017365797635528854  0.004506703981532721  4.008149607837017e-05  1.0000
  O   O1        1.0  0.0017365797635528854  0.004506703981532721  0.00015859632614847425  1.0000
  Ge  Ge1       1.0  0.0025273305672075803  0.0018491174083442353  0.9998344574234099  1.0000
  Ge  Ge2       1.0  0.007048333976393186  0.006651785865962141  0.9997229422153587  1.0000
  Ge  Ge3       1.0  0.001890302671810308  0.007452304006396225  0.9998947099151302  1.0000
  Ge  Ge4       1.0  0.005399906673877731  0.0022404921531427894  0.9997765475180969  1.0000
  Ge  Ge5       1.0  0.008814127226709247  0.0006892790189996064  0.9997917288719229  1.0000
  Ge  Ge6       1.0  0.004248301668982415  0.004944825397464996  0.9999706002629425  1.0000
  Ge  Ge7       1.0  0.0047883303683746254  0.008013325014972112  0.9999259865084205  1.0000
  Ge  Ge8       1.0  0.009240918291040567  0.0036797964486970825  0.9998252810973599  1.0000
  Ge  Ge9       1.0  0.0016113695103639682  0.0017483004571066778  0.9995649383020144  1.0000
  Ge  Ge10      1.0  0.006156823715649559  0.006748300401821049  0.999424637752934  1.0000
  Ge  Ge11      1.0  0.009752266360678007  0.0071529978709584064  0.9996223216533581  1.0000
  Ge  Ge12      1.0  0.0042977211916514135  0.0021529979178995027  0.9994820209994731  1.0000
  Ge  Ge13      1.0  0.007770592002680489  0.0004731558541191083  0.9995291577097094  1.0000
  Ge  Ge14      1.0  0.0032815440650940937  0.005511681742635163  0.9996611977277772  1.0000
  Ge  Ge15      1.0  0.0037338182081834695  0.008479193096212803  0.999663464149947  1.0000
  Ge  Ge16      1.0  0.008138498891539647  0.0034281426027323726  0.9995178018438196  1.0000
  Ge  Ge17      1.0  0.0007022786488595358  0.001748300564140881  0.9992843370983477  1.0000
  Ge  Ge18      1.0  0.005247732854145127  0.006748300077504437  0.9991440365500054  1.0000
  Ge  Ge19      1.0  0.008843175499173576  0.0071529975466417955  0.9993417204504295  1.0000
  Ge  Ge20      1.0  0.0033886301256738386  0.0021529980098516414  0.99920141979684  1.0000
  Ge  Ge21      1.0  0.006861501141176057  0.00047315586005546446  0.99924855621188  1.0000
  Ge  Ge22      1.0  0.0023160464247076107  0.005473155531476902  0.9993888569068895  1.0000
  Ge  Ge23      1.0  0.0026839533135667674  0.008428142731660551  0.9993775010402269  1.0000
  Ge  Ge24      1.0  0.007229407212142645  0.0034281426494383155  0.9992372003499514  1.0000
  Pt  Pt1       1.0  0.00631443979253324  0.00952684331526705  0.9997497655190819  1.0000
  Pt  Pt2       1.0  0.00184321761900507  0.004554734023907114  0.9998687155071881  1.0000
  Pt  Pt3       1.0  0.001180327449407652  0.009482123116700686  0.9997322735174003  1.0000
  Pt  Pt4       1.0  0.006726241339760896  0.0044400567515613535  0.9998844912732481  1.0000
  Pt  Pt5       1.0  0.005227272453650486  0.009450649215935882  0.9994533293003162  1.0000
  Pt  Pt6       1.0  0.0006818181461283243  0.004450649371518182  0.9995936301440645  1.0000
  Pt  Pt7       1.0  0.00022727268981696534  0.00945064937138793  0.9994533294666575  1.0000
  Pt  Pt8       1.0  0.005681817884402703  0.004450649214180878  0.999593630272188  1.0000
  Pt  Pt9       1.0  0.0043181815921460535  0.009450649322970085  0.9991727280966495  1.0000
  Pt  Pt10      1.0  0.009772726761172648  0.004450649163877778  0.9993130286079736  1.0000
  Pt  Pt11      1.0  0.009318181330420432  0.00945064916563278  0.9991727279304373  1.0000
  Pt  Pt12      1.0  0.00477272702289827  0.0044506493212150815  0.9993130287741857  1.0000
