data_image0
_chemical_formula_structural       COAl12Ca6
_chemical_formula_sum              "C1 O1 Al12 Ca6"
_cell_length_a       5.7189483046314
_cell_length_b       5.7189483642578125
_cell_length_c       112.0255126953125
_cell_angle_alpha    90.0
_cell_angle_beta     90.0
_cell_angle_gamma    120.00000034489311

_space_group_name_H-M_alt    "P 1"
_space_group_IT_number       1

loop_
  _space_group_symop_operation_xyz
  'x, y, z'

loop_
  _atom_site_type_symbol
  _atom_site_label
  _atom_site_symmetry_multiplicity
  _atom_site_fract_x
  _atom_site_fract_y
  _atom_site_fract_z
  _atom_site_occupancy
  C   C1        1.0  0.0016281576036599379  0.00914112166394933  4.7748941356121144e-05  1.0000
  O   O1        1.0  0.0016281576036599379  0.00914112166394933  0.0001548670827984893  1.0000
  Al  Al1       1.0  0.0008080632654576117  0.0024999999090765685  0.9993917592649472  1.0000
  Al  Al2       1.0  0.004115857421197864  0.009116062013426863  0.999807893818826  1.0000
  Al  Al3       1.0  0.007474729621229269  0.005833333086962398  0.9989749340931274  1.0000
  Al  Al4       1.0  0.009141396398213519  0.009166666293064122  0.9991833464130058  1.0000
  Al  Al5       1.0  0.0024747300424418626  0.005833333440875437  0.9996001715848255  1.0000
  Al  Al6       1.0  0.005808286989518016  0.002500113989104322  0.0  1.0000
  Al  Al7       1.0  0.0008080632654576117  0.007499999869992911  0.9993917592649472  1.0000
  Al  Al8       1.0  0.004115857045115191  0.004191731570492961  0.9998078932867629  1.0000
  Al  Al9       1.0  0.007474729621229269  0.0008333331260460549  0.9989749340931274  1.0000
  Al  Al10      1.0  0.0058080632203276914  0.007499999704121208  0.9993917592649472  1.0000
  Al  Al11      1.0  0.009191936644282547  0.0041919366180308655  0.9998078959470785  1.0000
  Al  Al12      1.0  0.0024747300424418626  0.0008333333578226658  0.9989749340931274  1.0000
  Ca  Ca1       1.0  0.0058080632203276914  0.002499999906053437  0.9992354497590069  1.0000
  Ca  Ca2       1.0  0.009141396398213519  0.009166666293064122  0.9996522743987636  1.0000
  Ca  Ca3       1.0  0.0024747300424418626  0.005833333440875437  0.9988186248532187  1.0000
  Ca  Ca4       1.0  0.0058080632203276914  0.002499999906053437  0.9995480682388244  1.0000
  Ca  Ca5       1.0  0.009140457695862171  0.009166181634122679  0.9999783796147665  1.0000
  Ca  Ca6       1.0  0.0024747300424418626  0.005833333440875437  0.9991312435990677  1.0000
