data_image0
_chemical_formula_structural       COAu6Ca6Au6Ca6
_chemical_formula_sum              "C1 O1 Au12 Ca12"
_cell_length_a       8.138755798339844
_cell_length_b       7.6079875635810925
_cell_length_c       102.56680297851562
_cell_angle_alpha    93.29334445732833
_cell_angle_beta     90.0
_cell_angle_gamma    105.51205698422947

_space_group_name_H-M_alt    "P 1"
_space_group_IT_number       1

loop_
  _space_group_symop_operation_xyz
  'x, y, z'

loop_
  _atom_site_type_symbol
  _atom_site_label
  _atom_site_symmetry_multiplicity
  _atom_site_fract_x
  _atom_site_fract_y
  _atom_site_fract_z
  _atom_site_occupancy
  C   C1        1.0  0.0036248112112245686  0.0055314738141023076  0.00016676265489035946  1.0000
  O   O1        1.0  0.0036248112112245686  0.0055314738141023076  0.0002837598115747565  1.0000
  Au  Au1       1.0  0.004607354745190444  0.009450236016738842  4.02699400356754e-05  1.0000
  Au  Au2       1.0  0.003491776805736356  0.004994207871121262  0.9997124633468222  1.0000
  Au  Au3       1.0  0.0023806659124565397  0.0005497633825573266  0.9993596655140865  1.0000
  Au  Au4       1.0  0.003589532842462823  0.005390360339055325  0.9999975912148571  1.0000
  Au  Au5       1.0  0.002486549380490885  0.0009732972546947102  0.999650287547808  1.0000
  Au  Au6       1.0  0.0013754382121083416  0.00652885292903351  0.9992974898261812  1.0000
  Ca  Ca1       1.0  0.0003926450116067091  0.0026031996862200123  0.9998724765637947  1.0000
  Ca  Ca2       1.0  0.00426866869922139  0.008101774529616728  0.9995151217228517  1.0000
  Ca  Ca3       1.0  0.0031575575770804057  0.003657330041052792  0.9991623238901159  1.0000
  Ca  Ca4       1.0  0.004487435489402538  0.008976841690341322  0.99914203372744  1.0000
  Ca  Ca5       1.0  0.001695156945452491  0.0078072754038831195  0.9998512786997623  1.0000
  Ca  Ca6       1.0  0.0005985465188768293  0.0034212862705380437  0.9994948314501516  1.0000
  Au  Au7       1.0  0.009607354690263763  0.009450236016738842  4.02699400356754e-05  1.0000
  Au  Au8       1.0  0.008491776750809676  0.004994207871121262  0.9997124633468222  1.0000
  Au  Au9       1.0  0.007380665628668692  0.0005497633825573266  0.9993596655140865  1.0000
  Au  Au10      1.0  0.008589532787536143  0.005390360339055325  0.9999975912148571  1.0000
  Au  Au11      1.0  0.007486549096703038  0.0009732972546947102  0.999650287547808  1.0000
  Au  Au12      1.0  0.0063754382716122455  0.00652885292903351  0.9992974898261812  1.0000
  Ca  Ca7       1.0  0.005392644928072383  0.0026031996862200123  0.9998724765637947  1.0000
  Ca  Ca8       1.0  0.009268668415433542  0.008101774529616728  0.9995151217228517  1.0000
  Ca  Ca9       1.0  0.008157557293292558  0.003657330041052792  0.9991623238901159  1.0000
  Ca  Ca10      1.0  0.00948743520561469  0.008976841690341322  0.99914203372744  1.0000
  Ca  Ca11      1.0  0.0066951569477411025  0.0078072754038831195  0.9998512786997623  1.0000
  Ca  Ca12      1.0  0.005598546606988378  0.0034212862705380437  0.9994948314501516  1.0000
