data_image0
_chemical_formula_structural       HAl4Au4Al4Au4Al4Au4
_chemical_formula_sum              "H1 Al12 Au12"
_cell_length_a       6.490012168884277
_cell_length_b       7.300916990053635
_cell_length_c       104.29175567626953
_cell_angle_alpha    61.9857518809375
_cell_angle_beta     90.0
_cell_angle_gamma    87.7999095157803

_space_group_name_H-M_alt    "P 1"
_space_group_IT_number       1

loop_
  _space_group_symop_operation_xyz
  'x, y, z'

loop_
  _atom_site_type_symbol
  _atom_site_label
  _atom_site_symmetry_multiplicity
  _atom_site_fract_x
  _atom_site_fract_y
  _atom_site_fract_z
  _atom_site_occupancy
  H   H1        1.0  0.0009076102298594363  0.0024783343718255612  0.9999185108704881  1.0000
  Al  Al1       1.0  0.008202866430529672  0.004501943294547818  0.9989237428316585  1.0000
  Al  Al2       1.0  0.0017971337750063178  0.0054931432901196165  0.9990555548117929  1.0000
  Al  Al3       1.0  0.003193383686416546  0.000781464036871923  0.999046074434497  1.0000
  Al  Al4       1.0  0.006806616366249604  0.009213622764739433  0.9989332232018211  1.0000
  Au  Au1       1.0  0.00477841133370314  0.006921066439016632  0.9991730067853787  1.0000
  Au  Au2       1.0  0.005221589289843622  0.0030740204349093635  0.9991350970309117  1.0000
  Au  Au3       1.0  3.18260188685978e-05  0.008111731617262107  0.9991338569958997  1.0000
  Au  Au4       1.0  0.009968174503298453  0.0018833551120346077  0.9991742468251462  1.0000
  Al  Al5       1.0  0.008202866430529672  0.004501943294547818  0.9992525490140086  1.0000
  Al  Al6       1.0  0.0017971337750063178  0.0054931432901196165  0.9993843607083838  1.0000
  Al  Al7       1.0  0.003193383686416546  0.000781464036871923  0.9993748806168471  1.0000
  Al  Al8       1.0  0.006806616366249604  0.009213622764739433  0.999262029098412  1.0000
  Au  Au5       1.0  0.00477841133370314  0.006921066439016632  0.9995018126819697  1.0000
  Au  Au6       1.0  0.005221589289843622  0.0030740204349093635  0.9994639029275026  1.0000
  Au  Au7       1.0  3.18260188685978e-05  0.008111731617262107  0.9994626628924907  1.0000
  Au  Au8       1.0  0.009968174503298453  0.0018833551120346077  0.9995030527217371  1.0000
  Al  Al9       1.0  0.008151675370407343  0.00453563005725783  0.999581183987976  1.0000
  Al  Al10      1.0  0.0017789319686515191  0.00544935822180017  0.9997388266576089  1.0000
  Al  Al11      1.0  0.003232030831881398  0.0008051480216121409  0.9997266257783308  1.0000
  Al  Al12      1.0  0.006889152561282666  0.009218535532132822  0.9995913358499328  1.0000
  Au  Au9       1.0  0.0047939396421899354  0.007145563479008327  0.9998147379320944  1.0000
  Au  Au10      1.0  0.005359455305311197  0.003190437460022153  0.9997930061810065  1.0000
  Au  Au11      1.0  0.009881266928594054  0.008160947804315557  0.9997914770721791  1.0000
  Au  Au12      1.0  0.009927088828333657  0.0020359058826508844  0.9998177623745192  1.0000
