data_image0
_chemical_formula_structural       HMo16
_chemical_formula_sum              "H1 Mo16"
_cell_length_a       5.476892471313477
_cell_length_b       5.476892573475997
_cell_length_c       101.30304718017578
_cell_angle_alpha    90.0
_cell_angle_beta     90.0
_cell_angle_gamma    109.47121981571351

_space_group_name_H-M_alt    "P 1"
_space_group_IT_number       1

loop_
  _space_group_symop_operation_xyz
  'x, y, z'

loop_
  _atom_site_type_symbol
  _atom_site_label
  _atom_site_symmetry_multiplicity
  _atom_site_fract_x
  _atom_site_fract_y
  _atom_site_fract_z
  _atom_site_occupancy
  H   H1        1.0  3.6694195298343535e-09  0.00250000421322842  0.00012162041356702025  1.0000
  Mo  Mo1       1.0  0.0025000036218067053  0.00250000421322842  0.0  1.0000
  Mo  Mo2       1.0  0.009999999392337306  0.009999998095389893  0.9997876908759855  1.0000
  Mo  Mo3       1.0  0.0025000002191209294  0.002500001147094724  0.9995615127626027  1.0000
  Mo  Mo4       1.0  3.4999997445265327e-10  1.2499999433248313e-09  0.9993407954001406  1.0000
  Mo  Mo5       1.0  0.0025000035155034834  0.007500003982366589  0.0  1.0000
  Mo  Mo6       1.0  0.00999999948070247  0.004999998686973335  0.9997876908759855  1.0000
  Mo  Mo7       1.0  0.002500000253579169  0.007500001096593698  0.9995615127626027  1.0000
  Mo  Mo8       1.0  3.427917071135624e-10  0.0050000012120246145  0.9993407954001406  1.0000
  Mo  Mo9       1.0  0.0075000035265810555  0.00250000421322842  0.0  1.0000
  Mo  Mo10      1.0  0.004999999317517154  0.009999998095389893  0.9997876908759855  1.0000
  Mo  Mo11      1.0  0.007500000463986885  0.002500001147094724  0.9995615127626027  1.0000
  Mo  Mo12      1.0  0.005000000321440989  1.2499999433248313e-09  0.9993407954001406  1.0000
  Mo  Mo13      1.0  0.007500003558456428  0.007500003982366589  0.0  1.0000
  Mo  Mo14      1.0  0.004999999575928119  0.004999998686973335  0.9997876908759855  1.0000
  Mo  Mo15      1.0  0.007500000215890919  0.007500001096593698  0.9995615127626027  1.0000
  Mo  Mo16      1.0  0.00500000041761186  0.0050000012120246145  0.9993407954001406  1.0000
