data_image0
_chemical_formula_structural       HGa12Au12
_chemical_formula_sum              "H1 Ga12 Au12"
_cell_length_a       7.392222735556243
_cell_length_b       7.394822197022004
_cell_length_c       30.863346099853516
_cell_angle_alpha    112.3273314648674
_cell_angle_beta     112.3026858827404
_cell_angle_gamma    75.59559215607737

_space_group_name_H-M_alt    "P 1"
_space_group_IT_number       1

loop_
  _space_group_symop_operation_xyz
  'x, y, z'

loop_
  _atom_site_type_symbol
  _atom_site_label
  _atom_site_symmetry_multiplicity
  _atom_site_fract_x
  _atom_site_fract_y
  _atom_site_fract_z
  _atom_site_occupancy
  H   H1        1.0  0.004459424389623048  0.004907129388911404  0.0009274683746538248  1.0000
  Ga  Ga1       1.0  0.0024032373414937863  0.008706035822071701  0.9986131542866261  1.0000
  Ga  Ga2       1.0  0.005736570585447215  0.0020393690548077066  0.9996698734361784  1.0000
  Ga  Ga3       1.0  0.009285980447869031  0.005289533300978306  0.0008011022532794361  1.0000
  Ga  Ga4       1.0  0.0009300961312873038  0.005131572085571788  0.9986282458030179  1.0000
  Ga  Ga5       1.0  0.0042634293970075674  0.008464905674971046  0.9996849647456079  1.0000
  Ga  Ga6       1.0  0.007424162362044991  0.0011992578210873537  0.0006675168618524227  1.0000
  Ga  Ga7       1.0  0.0063894066306708  0.004212951039639356  0.9987738545618643  1.0000
  Ga  Ga8       1.0  0.009722739929926866  0.0075462843546822665  0.9998305732411243  1.0000
  Ga  Ga9       1.0  0.0029969814346781764  0.00037534335148094487  0.0008108518656388762  1.0000
  Ga  Ga10      1.0  0.006943926701343751  0.009624656593647786  0.9984675458279796  1.0000
  Ga  Ga11      1.0  0.0002772600692958176  0.0029579902379183124  0.9995242644468888  1.0000
  Ga  Ga12      1.0  0.0036436497091297277  0.006009905273752324  0.0006321032948621098  1.0000
  Au  Au1       1.0  0.007060610053494869  0.0055101536650145  0.9981498388481621  1.0000
  Au  Au2       1.0  0.0003939435605890777  0.008843486705701063  0.9992065576661842  1.0000
  Au  Au3       1.0  0.003651877054397826  0.0021787725325575387  0.0002669988510239735  1.0000
  Au  Au4       1.0  0.006272722700289065  0.00832745424262899  0.9990915612726904  1.0000
  Au  Au5       1.0  0.009608254108972269  0.0017524433462923178  0.00019477171642514167  1.0000
  Au  Au6       1.0  0.0029393896398446054  0.004994121201942425  0.9980348423987047  1.0000
  Au  Au7       1.0  0.009554961135826585  0.001762977944120153  0.9985470040864387  1.0000
  Au  Au8       1.0  0.0028882946093849926  0.0050963112591630635  0.9996037226849799  1.0000
  Au  Au9       1.0  0.00632609002950308  0.00809998320061217  0.000771507806852852  1.0000
  Au  Au10      1.0  0.0037783718517700195  0.0020746297440382587  0.9986943962770936  1.0000
  Au  Au11      1.0  0.007111705423373493  0.005407963059081169  0.9997511152225143  1.0000
  Au  Au12      1.0  0.00042147412597128345  0.008360824205095286  0.0007993374399077651  1.0000
