data_image0
_chemical_formula_structural       HCo6W2Co6W2Co6W2Co6W2
_chemical_formula_sum              "H1 Co24 W8"
_cell_length_a       7.215514183044434
_cell_length_b       5.102138996124268
_cell_length_c       100.61283111572266
_cell_angle_alpha    90.0
_cell_angle_beta     90.0
_cell_angle_gamma    90.0

_space_group_name_H-M_alt    "P 1"
_space_group_IT_number       1

loop_
  _space_group_symop_operation_xyz
  'x, y, z'

loop_
  _atom_site_type_symbol
  _atom_site_label
  _atom_site_symmetry_multiplicity
  _atom_site_fract_x
  _atom_site_fract_y
  _atom_site_fract_z
  _atom_site_occupancy
  H   H1        1.0  0.002500000722804541  0.006242029906697791  1.6408736665902056e-05  1.0000
  Co  Co1       1.0  1.49999998525753e-10  0.006241926226413349  0.999502425410094  1.0000
  Co  Co2       1.0  1.49999998525753e-10  0.0012419259818154944  0.9992488722770194  1.0000
  Co  Co3       1.0  0.002500000206515583  0.008741925846739067  0.999122095858586  1.0000
  Co  Co4       1.0  0.002500000206515583  0.0037419258759447817  0.9993756489916606  1.0000
  Co  Co5       1.0  0.002500000206515583  0.0037419258759447817  0.999122095858586  1.0000
  Co  Co6       1.0  0.002500000206515583  0.008741925846739067  0.9993756489916606  1.0000
  W   W1        1.0  1.49999998525753e-10  0.006241926226413349  0.9992488722770194  1.0000
  W   W2        1.0  1.49999998525753e-10  0.0012419259818154944  0.999502425410094  1.0000
  Co  Co7       1.0  6.500000141270763e-10  0.006241970765127088  0.0  1.0000
  Co  Co8       1.0  0.009999999793484416  0.0012420089442966194  0.9997609068513614  1.0000
  Co  Co9       1.0  0.002500000206515583  0.008741925846739067  0.9996292021247353  1.0000
  Co  Co10      1.0  0.002500000722804541  0.0037259850322118  0.9998939534000884  1.0000
  Co  Co11      1.0  0.002500000206515583  0.0037419258759447817  0.9996292021247353  1.0000
  Co  Co12      1.0  0.002500000722804541  0.008758074416112357  0.9998939545849203  1.0000
  W   W3        1.0  3.5000001707557027e-10  0.006241992669412533  0.9997574317394659  1.0000
  W   W4        1.0  7.49999992628765e-10  0.0012420128688144284  0.9999915634046191  1.0000
  Co  Co13      1.0  0.005000000413031166  0.006241926226413349  0.999502425410094  1.0000
  Co  Co14      1.0  0.005000000413031166  0.0012419259818154944  0.9992488722770194  1.0000
  Co  Co15      1.0  0.007500000103257791  0.008741925846739067  0.999122095858586  1.0000
  Co  Co16      1.0  0.007500000103257791  0.0037419258759447817  0.9993756489916606  1.0000
  Co  Co17      1.0  0.007500000103257791  0.0037419258759447817  0.999122095858586  1.0000
  Co  Co18      1.0  0.007500000103257791  0.008741925846739067  0.9993756489916606  1.0000
  W   W5        1.0  0.005000000413031166  0.006241926226413349  0.9992488722770194  1.0000
  W   W6        1.0  0.005000000413031166  0.0012419259818154944  0.999502425410094  1.0000
  Co  Co19      1.0  0.0050000009293201236  0.006241970765127088  0.0  1.0000
  Co  Co20      1.0  0.004999999896742208  0.0012420089442966194  0.9997609068513614  1.0000
  Co  Co21      1.0  0.007500000103257791  0.008741925846739067  0.9996292021247353  1.0000
  Co  Co22      1.0  0.0075000011358357065  0.0037259850322118  0.9998939534000884  1.0000
  Co  Co23      1.0  0.007500000103257791  0.0037419258759447817  0.9996292021247353  1.0000
  Co  Co24      1.0  0.007500000619546749  0.008758074416112357  0.9998939545849203  1.0000
  W   W7        1.0  0.005000000413031166  0.006241992669412533  0.9997574317394659  1.0000
  W   W8        1.0  0.0050000009293201236  0.0012420128688144284  0.9999915634046191  1.0000
