data_image0
_chemical_formula_structural       COAu8In4Ti4
_chemical_formula_sum              "C1 O1 Au8 In4 Ti4"
_cell_length_a       4.747139930725098
_cell_length_b       4.747139930725098
_cell_length_c       103.56734466552734
_cell_angle_alpha    90.0
_cell_angle_beta     90.0
_cell_angle_gamma    90.0

_space_group_name_H-M_alt    "P 1"
_space_group_IT_number       1

loop_
  _space_group_symop_operation_xyz
  'x, y, z'

loop_
  _atom_site_type_symbol
  _atom_site_label
  _atom_site_symmetry_multiplicity
  _atom_site_fract_x
  _atom_site_fract_y
  _atom_site_fract_z
  _atom_site_occupancy
  C   C1        1.0  0.0025000008396762422  0.007499996829633627  0.0001672391406887729  1.0000
  O   O1        1.0  0.0025000008396762422  0.007499996829633627  0.00028310543766495204  1.0000
  Au  Au1       1.0  2.349999933848865e-09  0.005000000109864181  0.9996821403132972  1.0000
  Au  Au2       1.0  0.005000002464096637  1.9999999884851584e-10  0.9996821403132972  1.0000
  Au  Au3       1.0  0.00500000403358494  0.0099999947265193  0.0  1.0000
  Au  Au4       1.0  0.009999997865495906  0.004999999717492105  0.0  1.0000
  Au  Au5       1.0  2.349999933848865e-09  0.005000000109864181  0.9990339178588101  1.0000
  Au  Au6       1.0  0.005000002464096637  1.9999999884851584e-10  0.9990339178588101  1.0000
  Au  Au7       1.0  0.005000002464096637  1.9999999884851584e-10  0.9993580290860536  1.0000
  Au  Au8       1.0  2.349999933848865e-09  0.005000000109864181  0.9993580290860536  1.0000
  In  In1       1.0  3.6499999848322137e-09  0.00999999943498421  0.9998511290220636  1.0000
  In  In2       1.0  0.005000002464096637  0.005000000109864181  0.9995200848435544  1.0000
  In  In3       1.0  2.349999933848865e-09  1.9999999884851584e-10  0.9991959733285529  1.0000
  In  In4       1.0  0.005000002464096637  0.005000000109864181  0.9988718621013093  1.0000
  Ti  Ti1       1.0  2.349999933848865e-09  1.9999999884851584e-10  0.9995200848435544  1.0000
  Ti  Ti2       1.0  0.004999999717492105  0.004999996970887574  0.9998451430820715  1.0000
  Ti  Ti3       1.0  2.349999933848865e-09  1.9999999884851584e-10  0.9988718621013093  1.0000
  Ti  Ti4       1.0  0.005000002464096637  0.005000000109864181  0.9991959733285529  1.0000
