data_image0
_chemical_formula_structural       COGe40Ni20
_chemical_formula_sum              "C1 O1 Ge40 Ni20"
_cell_length_a       13.115401549702886
_cell_length_b       6.247394801800269
_cell_length_c       105.78614044189453
_cell_angle_alpha    93.53514810887687
_cell_angle_beta     96.28873552271139
_cell_angle_gamma    77.87007039290954

_space_group_name_H-M_alt    "P 1"
_space_group_IT_number       1

loop_
  _space_group_symop_operation_xyz
  'x, y, z'

loop_
  _atom_site_type_symbol
  _atom_site_label
  _atom_site_symmetry_multiplicity
  _atom_site_fract_x
  _atom_site_fract_y
  _atom_site_fract_z
  _atom_site_occupancy
  C   C1        1.0  0.009262092670488553  0.009804748304968018  9.874583058071201e-05  1.0000
  O   O1        1.0  0.009262092670488553  0.009804748304968018  0.00021218247047104206  1.0000
  Ge  Ge1       1.0  0.005905318887976709  0.008989982703312013  0.9995949079955122  1.0000
  Ge  Ge2       1.0  0.009905318196617016  0.00698998295182228  0.9993693832536428  1.0000
  Ge  Ge3       1.0  0.0019300955400236722  0.0008196374804544098  0.9998114196660377  1.0000
  Ge  Ge4       1.0  0.0039053186497378964  0.0049899833311570505  0.9991438580770369  1.0000
  Ge  Ge5       1.0  0.008122128708453394  0.0031110581357461386  5.063993139222625e-05  1.0000
  Ge  Ge6       1.0  0.002287998409844678  0.0067553425452678865  0.999342924628903  1.0000
  Ge  Ge7       1.0  0.00628799815642398  0.004755342606085071  0.9991173993288529  1.0000
  Ge  Ge8       1.0  0.008287998394662793  0.008755343173103673  0.999568449815124  1.0000
  Ge  Ge9       1.0  0.00033152248313166434  0.0022044919133594985  1.455158054291085e-05  1.0000
  Ge  Ge10      1.0  0.004306553685350769  0.0007858639671894969  0.9998099571489022  1.0000
  Ge  Ge11      1.0  0.0056519641725074725  0.006616660524476013  0.9993272862998307  1.0000
  Ge  Ge12      1.0  0.009651964065066439  0.0046166605227288375  0.9991017612832577  1.0000
  Ge  Ge13      1.0  0.0016519639879891764  0.008616660651351912  0.9995528113128944  1.0000
  Ge  Ge14      1.0  0.0035193019941915323  0.002494549597196557  2.0793671410488102e-05  1.0000
  Ge  Ge15      1.0  0.007651963826827627  0.0006166608518579659  0.9997783364279634  1.0000
  Ge  Ge16      1.0  0.00403464378663459  0.008382020398583028  0.9995263525703952  1.0000
  Ge  Ge17      1.0  0.008034643679193557  0.006382020396835854  0.9993008278355446  1.0000
  Ge  Ge18      1.0  3.464370019638049e-05  0.00038202032958480357  0.9997518780799091  1.0000
  Ge  Ge19      1.0  0.0020346436943754413  0.004382020366431887  0.9990753026514991  1.0000
  Ge  Ge20      1.0  0.00611572463427446  0.00219733744643235  0.9999713714183924  1.0000
  Ge  Ge21      1.0  0.003965356290442674  0.009176752358542909  0.9990521559253187  1.0000
  Ge  Ge22      1.0  0.007925776132536868  0.007089395722520473  0.9999596080932623  1.0000
  Ge  Ge23      1.0  0.009965356713199784  0.001176752010075611  0.9992776810463186  1.0000
  Ge  Ge24      1.0  0.0019653563441631903  0.005176752263827407  0.999728731072446  1.0000
  Ge  Ge25      1.0  0.005965356236722157  0.0031767522620802305  0.999503206055873  1.0000
  Ge  Ge26      1.0  0.0029746060268104058  0.0021952516851196898  0.9993925296220146  1.0000
  Ge  Ge27      1.0  0.006974605919369372  0.00019525168337251392  0.9991670046054416  1.0000
  Ge  Ge28      1.0  0.008974606157608186  0.004195251652959295  0.9996180548078148  1.0000
  Ge  Ge29      1.0  0.0009746060805309225  0.008195251781582367  0.9989414794914604  1.0000
  Ge  Ge30      1.0  0.004987450139886357  0.006092967816694527  0.9998565866778525  1.0000
  Ge  Ge31      1.0  0.001974606053670664  0.0001952517871198929  0.999167004804849  1.0000
  Ge  Ge32      1.0  0.005974606092209296  0.008195252063344493  0.9989414795771617  1.0000
  Ge  Ge33      1.0  0.007974606330448109  0.002195251244321273  0.9993925297090498  1.0000
  Ge  Ge34      1.0  0.00993841353840731  0.006122919533477135  0.9998553867093212  1.0000
  Ge  Ge35      1.0  0.003974606145929812  0.004195251371197171  0.9996180550038358  1.0000
  Ge  Ge36      1.0  0.00496535640956208  0.001176752152158118  0.9992776812399181  1.0000
  Ge  Ge37      1.0  0.008965356302121048  0.009176751445441396  0.999052156006669  1.0000
  Ge  Ge38      1.0  0.0009653562980336161  0.003176751949035925  0.9995032062527713  1.0000
  Ge  Ge39      1.0  0.0029826433752008306  0.0068030211864954305  0.9999562867012974  1.0000
  Ge  Ge40      1.0  0.0069653560638822335  0.005176752073286433  0.9997287314341848  1.0000
  Ni  Ni1       1.0  0.002738963024084281  0.0015341467316645069  0.9996212924982953  1.0000
  Ni  Ni2       1.0  0.006738963208602578  0.009534146497250881  0.9993957675524534  1.0000
  Ni  Ni3       1.0  0.008752847864729983  0.0034454943622743857  0.9998341298719242  1.0000
  Ni  Ni4       1.0  0.0007389630778047977  0.007534146529411276  0.9991702426483756  1.0000
  Ni  Ni5       1.0  0.004738962970363764  0.005534146527664101  0.9989447173500802  1.0000
  Ni  Ni6       1.0  0.004200999293168799  0.004837856917693091  0.9993872059685135  1.0000
  Ni  Ni7       1.0  0.008200999185727765  0.0028378569159459156  0.999161680670218  1.0000
  Ni  Ni8       1.0  0.0002009992911250829  0.006837856966363538  0.9996127309837705  1.0000
  Ni  Ni9       1.0  0.0021920992586792923  0.0003960831468557167  3.121250923633019e-05  1.0000
  Ni  Ni10      1.0  0.006198942385969748  0.008745593546729167  0.999832082014897  1.0000
  Ni  Ni11      1.0  0.0012009993007597408  0.003837856902491108  0.9992744433764907  1.0000
  Ni  Ni12      1.0  0.005200999120328875  0.0018378569320261127  0.999048918077318  1.0000
  Ni  Ni13      1.0  0.007200999358567688  0.005837856602896984  0.9994999685603257  1.0000
  Ni  Ni14      1.0  0.0091277382421765  0.009691893746140266  0.9999338927705785  1.0000
  Ni  Ni15      1.0  0.0032009991740493916  0.007837856729772882  0.9997254935733895  1.0000
  Ni  Ni16      1.0  0.0037389631432036877  0.008534146812046988  0.999283004960641  1.0000
  Ni  Ni17      1.0  0.007738963035762655  0.006534146810299812  0.999057479944068  1.0000
  Ni  Ni18      1.0  0.009738963274001467  0.0005341465887084123  0.9995085300781317  1.0000
  Ni  Ni19      1.0  0.001651939463405472  0.00421791569580678  0.9999407501787247  1.0000
  Ni  Ni20      1.0  0.0057389627975238415  0.0025341468407130315  0.999734055087686  1.0000
