data_image0
_chemical_formula_structural       COCa5Cu25Ca5Cu25
_chemical_formula_sum              "C1 O1 Ca10 Cu50"
_cell_length_a       6.621114357968999
_cell_length_b       13.755495999402426
_cell_length_c       109.7266845703125
_cell_angle_alpha    98.53388298533459
_cell_angle_beta     94.30834458285459
_cell_angle_gamma    53.58873885176275

_space_group_name_H-M_alt    "P 1"
_space_group_IT_number       1

loop_
  _space_group_symop_operation_xyz
  'x, y, z'

loop_
  _atom_site_type_symbol
  _atom_site_label
  _atom_site_symmetry_multiplicity
  _atom_site_fract_x
  _atom_site_fract_y
  _atom_site_fract_z
  _atom_site_occupancy
  C   C1        1.0  0.003319734843203018  0.0003335150945575352  6.625481176660064e-05  1.0000
  O   O1        1.0  0.003319734843203018  0.0003335150945575352  0.00017561767427982545  1.0000
  Ca  Ca1       1.0  0.008910989058185282  0.00665926127577529  0.9999459471064246  1.0000
  Ca  Ca2       1.0  0.006739012786624612  0.000700425794240361  0.9998220771941787  1.0000
  Ca  Ca3       1.0  0.000840944342997303  0.0026664847324695817  0.9994598861197286  1.0000
  Ca  Ca4       1.0  0.004840944356282396  0.004666484636646326  0.9997012538042166  1.0000
  Ca  Ca5       1.0  0.0028409443059388873  0.008666484795672743  0.9995805698769279  1.0000
  Cu  Cu1       1.0  0.006174212463074715  0.00864129657054231  0.999779157020446  1.0000
  Cu  Cu2       1.0  0.004174277789370458  0.0026664846818085634  0.9996610258867784  1.0000
  Cu  Cu3       1.0  0.008121263728562839  0.004650178301790953  0.9998997743017392  1.0000
  Cu  Cu4       1.0  0.00217427773902695  0.006666484566980991  0.9995403419543953  1.0000
  Cu  Cu5       1.0  0.00015905564939872958  0.0006253198653113518  1.2353793341833223e-05  1.0000
  Cu  Cu6       1.0  0.005507610923194333  0.006666484865338078  0.9997414817267493  1.0000
  Cu  Cu7       1.0  0.0035076108728508246  0.0006664848271896227  0.9996207979696198  1.0000
  Cu  Cu8       1.0  0.007626575130906547  0.002644471903624641  0.9998742351888301  1.0000
  Cu  Cu9       1.0  0.0015076109973111644  0.004666484936106628  0.9995001140421914  1.0000
  Cu  Cu10      1.0  0.009431620644570536  0.008783568847742555  0.9999817545979871  1.0000
  Cu  Cu11      1.0  0.00984094413253347  0.004666484810327969  0.9997012539680383  1.0000
  Cu  Cu12      1.0  0.007840944082189962  0.008666484421646409  0.9995805700305607  1.0000
  Cu  Cu13      1.0  0.001824426890340562  0.0006539770346838208  0.9998197499688528  1.0000
  Cu  Cu14      1.0  0.005840944381454149  0.0026664848309871066  0.9994598862833407  1.0000
  Cu  Cu15      1.0  0.003752577489734847  0.006666031303592241  0.9999360094015446  1.0000
  Cu  Cu16      1.0  0.008840944456969412  0.006666484515768366  0.9996409117274149  1.0000
  Cu  Cu17      1.0  0.006840944406625904  0.0006664847514738985  0.99952022797538  1.0000
  Cu  Cu18      1.0  0.0008411644210422709  0.0026620961209785237  0.9997609198793197  1.0000
  Cu  Cu19      1.0  0.004619038212669416  0.0047451321092644595  0.9999791087988338  1.0000
  Cu  Cu20      1.0  0.002868597400715442  0.008646250739101356  0.9998825495189454  1.0000
  Cu  Cu21      1.0  0.0008141383476694491  0.007684266329590488  0.9997612528957548  1.0000
  Cu  Cu22      1.0  0.008840944456969412  0.001666484691034918  0.999640912089194  1.0000
  Cu  Cu23      1.0  0.0028097075574690165  0.0037233717120129066  0.9998756384339  1.0000
  Cu  Cu24      1.0  0.006840944406625904  0.005666484850061335  0.9995202281619053  1.0000
  Cu  Cu25      1.0  0.004920916417649029  0.009604862394431271  0.9999934798663705  1.0000
  Ca  Ca6       1.0  0.008840944456969412  0.006666484515768366  0.9993392025094052  1.0000
  Ca  Ca7       1.0  0.006840944406625904  0.0006664847514738985  0.9992185187573702  1.0000
  Ca  Ca8       1.0  0.000840944342997303  0.0026664847324695817  0.9988564674121042  1.0000
  Ca  Ca9       1.0  0.004840944356282396  0.004666484636646326  0.9990978350965922  1.0000
  Ca  Ca10      1.0  0.0028409443059388873  0.008666484795672743  0.9989771511693035  1.0000
  Cu  Cu26      1.0  0.00617427749010627  0.008666484546321854  0.9991782909314685  1.0000
  Cu  Cu27      1.0  0.004174277789370458  0.0026664846818085634  0.999057607179154  1.0000
  Cu  Cu28      1.0  0.008174277540449778  0.0046664849350034135  0.9992989745973411  1.0000
  Cu  Cu29      1.0  0.00217427773902695  0.006666484566980991  0.9989369232467709  1.0000
  Cu  Cu30      1.0  0.0001742776559077201  0.0006664848805455359  0.9994196582036602  1.0000
  Cu  Cu31      1.0  0.005507610923194333  0.006666484865338078  0.9991380630191249  1.0000
  Cu  Cu32      1.0  0.0035076108728508246  0.0006664848271896227  0.9990173792619954  1.0000
  Cu  Cu33      1.0  0.007507610623930144  0.002666484806530485  0.999258746675088  1.0000
  Cu  Cu34      1.0  0.0015076109973111644  0.004666484936106628  0.9988966953345669  1.0000
  Cu  Cu35      1.0  0.009507610674273652  0.008666484296970964  0.9993794304220285  1.0000
  Cu  Cu36      1.0  0.00984094413253347  0.004666484810327969  0.9990978349888089  1.0000
  Cu  Cu37      1.0  0.007840944082189962  0.008666484421646409  0.9989771513229363  1.0000
  Cu  Cu38      1.0  0.001840944280767133  0.0006664849518650674  0.9992185185989226  1.0000
  Cu  Cu39      1.0  0.005840944381454149  0.0026664848309871066  0.9988564675757162  1.0000
  Cu  Cu40      1.0  0.0038409443311106413  0.006666484442305547  0.999339202345863  1.0000
  Cu  Cu41      1.0  0.008840944456969412  0.006666484515768366  0.9990374930197905  1.0000
  Cu  Cu42      1.0  0.006840944406625904  0.0006664847514738985  0.9989168092677555  1.0000
  Cu  Cu43      1.0  0.000840944342997303  0.0026664847324695817  0.9991581769017189  1.0000
  Cu  Cu44      1.0  0.004840944356282396  0.004666484636646326  0.999399544586207  1.0000
  Cu  Cu45      1.0  0.0028409443059388873  0.008666484795672743  0.9992788606589182  1.0000
  Cu  Cu46      1.0  0.000840944342997303  0.007666484557203029  0.9991581768115448  1.0000
  Cu  Cu47      1.0  0.008840944456969412  0.001666484691034918  0.9990374931099646  1.0000
  Cu  Cu48      1.0  0.0028409443059388873  0.0036664846970853072  0.9992788604723928  1.0000
  Cu  Cu49      1.0  0.006840944406625904  0.005666484850061335  0.998916809454281  1.0000
  Cu  Cu50      1.0  0.004840944356282396  0.00966648500908775  0.9993995442346167  1.0000
