data_image0
_chemical_formula_structural       COAl8Pd4Al8Pd4Al8Pd4Al8Pd4
_chemical_formula_sum              "C1 O1 Al32 Pd16"
_cell_length_a       8.458901405334473
_cell_length_b       8.458901405334473
_cell_length_c       105.8880844116211
_cell_angle_alpha    90.0
_cell_angle_beta     90.0
_cell_angle_gamma    90.0

_space_group_name_H-M_alt    "P 1"
_space_group_IT_number       1

loop_
  _space_group_symop_operation_xyz
  'x, y, z'

loop_
  _atom_site_type_symbol
  _atom_site_label
  _atom_site_symmetry_multiplicity
  _atom_site_fract_x
  _atom_site_fract_y
  _atom_site_fract_z
  _atom_site_occupancy
  C   C1        1.0  0.0037500000176159533  0.0037500000176159533  2.235510138617705e-05  1.0000
  O   O1        1.0  0.0037500000176159533  0.0037500000176159533  0.00013568252991956242  1.0000
  Al  Al1       1.0  0.0012500000792717897  0.0012500000792717897  0.9990114698455858  1.0000
  Al  Al2       1.0  0.0037500000176159533  0.0037500000176159533  0.9990114698455858  1.0000
  Al  Al3       1.0  0.0037500000176159533  0.0037500000176159533  0.9992939071933905  1.0000
  Al  Al4       1.0  0.0012500000792717897  0.0012500000792717897  0.9992939071933905  1.0000
  Al  Al5       1.0  0.0012500000792717897  0.0012500000792717897  0.9995763445411951  1.0000
  Al  Al6       1.0  0.0037500000176159533  0.0037500000176159533  0.9995763445411951  1.0000
  Al  Al7       1.0  0.0037500000176159533  0.0037500000176159533  0.9998587813260976  1.0000
  Al  Al8       1.0  0.0012500000792717897  0.0012500000792717897  0.9998587813260976  1.0000
  Pd  Pd1       1.0  0.0037500000176159533  0.0012500000792717897  0.9994351258672928  1.0000
  Pd  Pd2       1.0  0.0012500000792717897  0.0037500000176159533  0.9991526885194881  1.0000
  Pd  Pd3       1.0  0.0037500000176159533  0.0012500000792717897  0.0  1.0000
  Pd  Pd4       1.0  0.0012500000792717897  0.0037500000176159533  0.9997175632150975  1.0000
  Al  Al9       1.0  0.0012500000792717897  0.006250000176159533  0.9990114698455858  1.0000
  Al  Al10      1.0  0.0037500000176159533  0.008750000775101944  0.9990114698455858  1.0000
  Al  Al11      1.0  0.0037500000176159533  0.008750000775101944  0.9992939071933905  1.0000
  Al  Al12      1.0  0.0012500000792717897  0.006250000176159533  0.9992939071933905  1.0000
  Al  Al13      1.0  0.0012500000792717897  0.006250000176159533  0.9995763445411951  1.0000
  Al  Al14      1.0  0.0037500000176159533  0.008750000775101944  0.9995763445411951  1.0000
  Al  Al15      1.0  0.0037500000176159533  0.008750000775101944  0.9998587813260976  1.0000
  Al  Al16      1.0  0.0012500000792717897  0.006250000176159533  0.9998587813260976  1.0000
  Pd  Pd5       1.0  0.0037500000176159533  0.006250000176159533  0.9994351258672928  1.0000
  Pd  Pd6       1.0  0.0012500000792717897  0.008750000775101944  0.9991526885194881  1.0000
  Pd  Pd7       1.0  0.0037500000176159533  0.006250000176159533  0.0  1.0000
  Pd  Pd8       1.0  0.0012500000792717897  0.008750000775101944  0.9997175632150975  1.0000
  Al  Al17      1.0  0.006250000176159533  0.0012500000792717897  0.9990114698455858  1.0000
  Al  Al18      1.0  0.008750000775101944  0.0037500000176159533  0.9990114698455858  1.0000
  Al  Al19      1.0  0.008750000775101944  0.0037500000176159533  0.9992939071933905  1.0000
  Al  Al20      1.0  0.006250000176159533  0.0012500000792717897  0.9992939071933905  1.0000
  Al  Al21      1.0  0.006250000176159533  0.0012500000792717897  0.9995763445411951  1.0000
  Al  Al22      1.0  0.008750000775101944  0.0037500000176159533  0.9995763445411951  1.0000
  Al  Al23      1.0  0.008750000775101944  0.0037500000176159533  0.9998587813260976  1.0000
  Al  Al24      1.0  0.006250000176159533  0.0012500000792717897  0.9998587813260976  1.0000
  Pd  Pd9       1.0  0.008750000775101944  0.0012500000792717897  0.9994351258672928  1.0000
  Pd  Pd10      1.0  0.006250000176159533  0.0037500000176159533  0.9991526885194881  1.0000
  Pd  Pd11      1.0  0.008750000775101944  0.0012500000792717897  0.0  1.0000
  Pd  Pd12      1.0  0.006250000176159533  0.0037500000176159533  0.9997175632150975  1.0000
  Al  Al25      1.0  0.006250000176159533  0.006250000176159533  0.9990114698455858  1.0000
  Al  Al26      1.0  0.008750000775101944  0.008750000775101944  0.9990114698455858  1.0000
  Al  Al27      1.0  0.008750000775101944  0.008750000775101944  0.9992939071933905  1.0000
  Al  Al28      1.0  0.006250000176159533  0.006250000176159533  0.9992939071933905  1.0000
  Al  Al29      1.0  0.006250000176159533  0.006250000176159533  0.9995763445411951  1.0000
  Al  Al30      1.0  0.008750000775101944  0.008750000775101944  0.9995763445411951  1.0000
  Al  Al31      1.0  0.008750000775101944  0.008750000775101944  0.9998587813260976  1.0000
  Al  Al32      1.0  0.006250000176159533  0.006250000176159533  0.9998587813260976  1.0000
  Pd  Pd13      1.0  0.008750000775101944  0.006250000176159533  0.9994351258672928  1.0000
  Pd  Pd14      1.0  0.006250000176159533  0.008750000775101944  0.9991526885194881  1.0000
  Pd  Pd15      1.0  0.008750000775101944  0.006250000176159533  0.0  1.0000
  Pd  Pd16      1.0  0.006250000176159533  0.008750000775101944  0.9997175632150975  1.0000
