data_image0
_chemical_formula_structural       HAl8Os4
_chemical_formula_sum              "H1 Al8 Os4"
_cell_length_a       4.523580551147461
_cell_length_b       4.759120252739642
_cell_length_c       38.10647964477539
_cell_angle_alpha    86.69682086451643
_cell_angle_beta     90.0
_cell_angle_gamma    90.0

_space_group_name_H-M_alt    "P 1"
_space_group_IT_number       1

loop_
  _space_group_symop_operation_xyz
  'x, y, z'

loop_
  _atom_site_type_symbol
  _atom_site_label
  _atom_site_symmetry_multiplicity
  _atom_site_fract_x
  _atom_site_fract_y
  _atom_site_fract_z
  _atom_site_occupancy
  H   H1        1.0  5.000000138783843e-11  0.0010464944094271918  0.00011681460312590245  1.0000
  Al  Al1       1.0  5.000000138783843e-11  0.001453505539608172  0.9983881315597016  1.0000
  Al  Al2       1.0  0.005000000378822377  0.00895350568074101  0.9989112300640777  1.0000
  Al  Al3       1.0  5.000000138783843e-11  0.0063066275127792336  0.9987266196555848  1.0000
  Al  Al4       1.0  0.005000000378822377  0.00880662716778785  0.998203520988439  1.0000
  Al  Al5       1.0  5.000000138783843e-11  0.006480133871961479  0.9994220086153753  1.0000
  Al  Al6       1.0  0.005000000378822377  0.003987839285852282  0.9999713031393905  1.0000
  Al  Al7       1.0  5.000000138783843e-11  0.0012565454509335943  0.9997927403435696  1.0000
  Al  Al8       1.0  0.005000000378822377  0.003806627465734954  0.9992497183255519  1.0000
  Os  Os1       1.0  5.000000138783843e-11  0.0013800666751672542  0.9990804744717198  1.0000
  Os  Os2       1.0  0.005000000378822377  0.003880066722211534  0.9985573758017527  1.0000
  Os  Os3       1.0  0.009999999934117848  0.006128150141403813  5.90083688114326e-05  1.0000
  Os  Os4       1.0  0.005000000378822377  0.00886076964491329  0.9995948313199047  1.0000
