data_image0
_chemical_formula_structural       COIn4Ni8In4Ni8In4Ni8In4Ni8
_chemical_formula_sum              "C1 O1 In16 Ni32"
_cell_length_a       8.72567077597537
_cell_length_b       11.462929312465315
_cell_length_c       104.90267944335938
_cell_angle_alpha    112.37109357488407
_cell_angle_beta     120.0000001461037
_cell_angle_gamma    79.02959427106468

_space_group_name_H-M_alt    "P 1"
_space_group_IT_number       1

loop_
  _space_group_symop_operation_xyz
  'x, y, z'

loop_
  _atom_site_type_symbol
  _atom_site_label
  _atom_site_symmetry_multiplicity
  _atom_site_fract_x
  _atom_site_fract_y
  _atom_site_fract_z
  _atom_site_occupancy
  C   C1        1.0  0.0052865645757875605  0.0016257662757518494  0.000318008267534916  1.0000
  O   O1        1.0  0.0052865645757875605  0.0016257662757518494  0.000432399670859647  1.0000
  In  In1       1.0  0.003387815317705077  0.001262907374700678  0.9995711537603787  1.0000
  In  In2       1.0  0.003387815317705077  0.006262907385243746  0.9997791005659135  1.0000
  In  In3       1.0  0.0017211487101961964  0.0037629075117605526  0.9998137582835745  1.0000
  In  In4       1.0  0.0017211487101961964  0.008762907610162513  0.9996058113802966  1.0000
  Ni  Ni1       1.0  5.4482098835897424e-05  1.2907399520815624e-05  0.9997964292898717  1.0000
  Ni  Ni2       1.0  5.4482098835897424e-05  0.005012907272784361  0.9995884826613253  1.0000
  Ni  Ni3       1.0  5.4482098835897424e-05  0.0025129073993011685  0.9994845092640389  1.0000
  Ni  Ni4       1.0  5.4482098835897424e-05  0.00751290749770313  0.9996924560732277  1.0000
  Ni  Ni5       1.0  0.003387815317705077  0.0037629075117605526  0.999675127168627  1.0000
  Ni  Ni6       1.0  0.003387815317705077  0.008762907610162513  0.9994671802653491  1.0000
  Ni  Ni7       1.0  0.0017211487101961964  0.001262907374700678  0.9997097848753261  1.0000
  Ni  Ni8       1.0  0.0017211487101961964  0.006262907385243746  0.9995018379683942  1.0000
  In  In5       1.0  0.0033812320420624166  0.001421639051074689  0.9999924504985213  1.0000
  In  In6       1.0  0.0034137971709200642  0.006403392350818578  0.00020525535867476656  1.0000
  In  In7       1.0  0.0017195191596767404  0.003606077629003509  0.0002214881674874093  1.0000
  In  In8       1.0  0.0019019946788833332  0.008686944810512236  4.8749258250653735e-05  1.0000
  Ni  Ni9       1.0  0.009774100708574611  0.009987092670985947  0.0001645505815069134  1.0000
  Ni  Ni10      1.0  5.968219919244771e-05  0.005015399653886002  5.187499364150129e-06  1.0000
  Ni  Ni11      1.0  5.4482098835897424e-05  0.0025129073993011685  0.9999004026924107  1.0000
  Ni  Ni12      1.0  0.009945517295875192  0.007428744300333492  8.693446797540548e-05  1.0000
  Ni  Ni13      1.0  0.003394153581516495  0.003996670156356331  0.0001005670295534568  1.0000
  Ni  Ni14      1.0  0.003387815317705077  0.008762907610162513  0.9998830739778158  1.0000
  Ni  Ni15      1.0  0.001707046972907122  0.0010771610213536529  0.00011560592875324257  1.0000
  Ni  Ni16      1.0  0.0017211487101961964  0.006262907385243746  0.999917731680861  1.0000
  In  In9       1.0  0.008387814893740943  0.001262907374700678  0.9995711535495617  1.0000
  In  In10      1.0  0.008387814893740943  0.006262907385243746  0.9997791003550965  1.0000
  In  In11      1.0  0.0067211487792136135  0.0037629075117605526  0.9998137583773553  1.0000
  In  In12      1.0  0.0067211487792136135  0.008762907610162513  0.9996058114740773  1.0000
  Ni  Ni17      1.0  0.005054482171704733  1.2907399520815624e-05  0.9997964293838126  1.0000
  Ni  Ni18      1.0  0.005054482171704733  0.005012907272784361  0.9995884824711713  1.0000
  Ni  Ni19      1.0  0.005054482171704733  0.0025129073993011685  0.9994845090738849  1.0000
  Ni  Ni20      1.0  0.005054482171704733  0.00751290749770313  0.9996924558830736  1.0000
  Ni  Ni21      1.0  0.008387814893740943  0.0037629075117605526  0.9996751269578101  1.0000
  Ni  Ni22      1.0  0.008387814893740943  0.008762907610162513  0.9994671803386271  1.0000
  Ni  Ni23      1.0  0.0067211487792136135  0.001262907374700678  0.999709784969107  1.0000
  Ni  Ni24      1.0  0.0067211487792136135  0.006262907385243746  0.999501838062175  1.0000
  In  In13      1.0  0.008381231618098282  0.001421639051074689  0.9999924502877043  1.0000
  In  In14      1.0  0.008413796993446706  0.006403392350818578  0.00020525544220414982  1.0000
  In  In15      1.0  0.006719518982203382  0.003606077629003509  0.00022148825101679255  1.0000
  In  In16      1.0  0.006901994624655363  0.008686944810512236  4.8749346905733926e-05  1.0000
  Ni  Ni25      1.0  0.004774101379029521  0.009987092670985947  0.0001645508025752766  1.0000
  Ni  Ni26      1.0  0.005059682141113059  0.005015399653886002  5.187303764093526e-06  1.0000
  Ni  Ni27      1.0  0.005054482171704733  0.0025129073993011685  0.9999004027863516  1.0000
  Ni  Ni28      1.0  0.004945517966330102  0.007428744300333492  8.693440494881e-05  1.0000
  Ni  Ni29      1.0  0.008394153650533913  0.003996670156356331  0.00010056712333423387  1.0000
  Ni  Ni30      1.0  0.008387814893740943  0.008762907610162513  0.9998830737669989  1.0000
  Ni  Ni31      1.0  0.006707047041924539  0.0010771610213536529  0.00011560602253401967  1.0000
  Ni  Ni32      1.0  0.0067211487792136135  0.006262907385243746  0.9999177317746417  1.0000
