data_image0
_chemical_formula_structural       COCa2Ga4
_chemical_formula_sum              "C1 O1 Ca2 Ga4"
_cell_length_a       4.569172357830264
_cell_length_b       4.569172382354736
_cell_length_c       99.96781158447266
_cell_angle_alpha    90.0
_cell_angle_beta     90.0
_cell_angle_gamma    120.0000001775514

_space_group_name_H-M_alt    "P 1"
_space_group_IT_number       1

loop_
  _space_group_symop_operation_xyz
  'x, y, z'

loop_
  _atom_site_type_symbol
  _atom_site_label
  _atom_site_symmetry_multiplicity
  _atom_site_fract_x
  _atom_site_fract_y
  _atom_site_fract_z
  _atom_site_occupancy
  C   C1        1.0  0.0066622113843321255  0.0049962813654018026  0.00017326090719356152  1.0000
  O   O1        1.0  0.0066622113843321255  0.0049962813654018026  0.00029329919275621324  1.0000
  Ca  Ca1       1.0  0.0016622115632054387  0.004996281409996429  0.0  1.0000
  Ca  Ca2       1.0  0.0016680849625792511  0.004999239715388844  0.9996131712794973  1.0000
  Ga  Ga1       1.0  0.008334751704560998  0.008332573086379717  0.9993940584493711  1.0000
  Ga  Ga2       1.0  0.005003046551437006  0.001666729262166726  0.9997784822424187  1.0000
  Ga  Ga3       1.0  0.005001418333570124  0.0016659066434388985  0.9994575658847212  1.0000
  Ga  Ga4       1.0  0.008337787843688313  0.008334092786562658  0.9998447296911863  1.0000
