data_image0
_chemical_formula_structural       COPt16W8Pt16W8
_chemical_formula_sum              "C1 O1 Pt32 W16"
_cell_length_a       16.993564863289834
_cell_length_b       4.86640458570633
_cell_length_c       104.06483459472656
_cell_angle_alpha    109.46088733561763
_cell_angle_beta     84.5210420388078
_cell_angle_gamma    84.52104245897584

_space_group_name_H-M_alt    "P 1"
_space_group_IT_number       1

loop_
  _space_group_symop_operation_xyz
  'x, y, z'

loop_
  _atom_site_type_symbol
  _atom_site_label
  _atom_site_symmetry_multiplicity
  _atom_site_fract_x
  _atom_site_fract_y
  _atom_site_fract_z
  _atom_site_occupancy
  C   C1        1.0  0.0090173155578423  0.004237367729583053  4.195312784719222e-05  1.0000
  O   O1        1.0  0.0090173155578423  0.004237367729583053  0.00015726608986196263  1.0000
  Pt  Pt1       1.0  0.006222431624289822  0.0018887845613273218  0.9994647766305166  1.0000
  Pt  Pt2       1.0  0.0012224313886755973  0.004388784679134434  0.9995816846383964  1.0000
  Pt  Pt3       1.0  0.0012224313886755973  0.009388785052606666  0.9998155003625743  1.0000
  Pt  Pt4       1.0  0.006222431624289822  0.006888784934799555  0.9996985923546945  1.0000
  Pt  Pt5       1.0  0.007092523390570982  0.0014537386781867422  0.999678248142089  1.0000
  Pt  Pt6       1.0  0.002092523043817972  0.003953738851563246  0.9997951561525674  1.0000
  Pt  Pt7       1.0  0.002092523043817972  0.008953739225035479  0.9995613400047259  1.0000
  Pt  Pt8       1.0  0.007092523390570982  0.006453739051658975  0.9994444319942474  1.0000
  Pt  Pt9       1.0  0.008722431464249971  0.0006387846413472467  0.9996401382827007  1.0000
  Pt  Pt10      1.0  0.003722431562052102  0.003138784592446182  0.9997570462827847  1.0000
  Pt  Pt11      1.0  0.003722431562052102  0.008138784965918414  0.999523230134943  1.0000
  Pt  Pt12      1.0  0.008722431464249971  0.005638785014819479  0.9998739545796431  1.0000
  Pt  Pt13      1.0  0.00959252367508627  0.00020373853592909726  0.9998536103566433  1.0000
  Pt  Pt14      1.0  0.004592523106055691  0.0027037388204443867  0.9995028865002994  1.0000
  Pt  Pt15      1.0  0.004592523106055691  0.007703739193916619  0.9997367022244772  1.0000
  Pt  Pt16      1.0  0.00959252367508627  0.00520373890940133  0.9996197942088016  1.0000
  W   W1        1.0  0.005407477142895187  0.002296261802024639  0.9997176472202327  1.0000
  W   W2        1.0  0.0004074771295585324  0.004796261808692966  0.9998345552229153  1.0000
  W   W3        1.0  0.0004074771295585324  0.0097962621821652  0.9996007390750736  1.0000
  W   W4        1.0  0.005407477142895187  0.007296262175496871  0.999483831072391  1.0000
  W   W5        1.0  0.007907477427410476  0.001046261659766994  0.9994253775627674  1.0000
  W   W6        1.0  0.002907477302935037  0.003546261722004714  0.9995422855680486  1.0000
  W   W7        1.0  0.002907477302935037  0.008546262095476946  0.9997761012922264  1.0000
  W   W8        1.0  0.007907477427410476  0.006046262033239227  0.9996591932869453  1.0000
  Pt  Pt17      1.0  0.006222431624289822  0.0018887845613273218  0.9989971444721149  1.0000
  Pt  Pt18      1.0  0.0012224313886755973  0.004388784679134434  0.9991140524799946  1.0000
  Pt  Pt19      1.0  0.0012224313886755973  0.009388785052606666  0.9993478684905547  1.0000
  Pt  Pt20      1.0  0.006222431624289822  0.006888784934799555  0.9992309604826749  1.0000
  Pt  Pt21      1.0  0.007092523390570982  0.0014537386781867422  0.9992106162700696  1.0000
  Pt  Pt22      1.0  0.002092523043817972  0.003953738851563246  0.9993275242805479  1.0000
  Pt  Pt23      1.0  0.002092523043817972  0.008953739225035479  0.9990937081327063  1.0000
  Pt  Pt24      1.0  0.007092523390570982  0.006453739051658975  0.9989768001222279  1.0000
  Pt  Pt25      1.0  0.008722431464249971  0.0006387846413472467  0.9991725064106812  1.0000
  Pt  Pt26      1.0  0.003722431562052102  0.003138784592446182  0.9992894144107651  1.0000
  Pt  Pt27      1.0  0.003722431562052102  0.008138784965918414  0.9990555982629236  1.0000
  Pt  Pt28      1.0  0.008722431464249971  0.005638785014819479  0.999406322134859  1.0000
  Pt  Pt29      1.0  0.00959252367508627  0.00020373853592909726  0.9993859784846237  1.0000
  Pt  Pt30      1.0  0.004592523106055691  0.0027037388204443867  0.9990352543418975  1.0000
  Pt  Pt31      1.0  0.004592523106055691  0.007703739193916619  0.9992690703524577  1.0000
  Pt  Pt32      1.0  0.00959252367508627  0.00520373890940133  0.9991521623367821  1.0000
  W   W9        1.0  0.005407477142895187  0.002296261802024639  0.9992500153482131  1.0000
  W   W10       1.0  0.0004074771295585324  0.004796261808692966  0.9993669233508957  1.0000
  W   W11       1.0  0.0004074771295585324  0.0097962621821652  0.999133107203054  1.0000
  W   W12       1.0  0.005407477142895187  0.007296262175496871  0.9990161992003715  1.0000
  W   W13       1.0  0.007907477427410476  0.001046261659766994  0.9989577454043657  1.0000
  W   W14       1.0  0.002907477302935037  0.003546261722004714  0.9990746534096469  1.0000
  W   W15       1.0  0.002907477302935037  0.008546262095476946  0.9993084694202069  1.0000
  W   W16       1.0  0.007907477427410476  0.006046262033239227  0.9991915614149257  1.0000
