data_image0
_chemical_formula_structural       HNa8Ge4Se10Na8Ge4Se10
_chemical_formula_sum              "H1 Na16 Ge8 Se20"
_cell_length_a       8.32959836801456
_cell_length_b       10.963848234969767
_cell_length_c       106.2722396850586
_cell_angle_alpha    109.43009090270884
_cell_angle_beta     81.72918384768903
_cell_angle_gamma    79.14218046747827

_space_group_name_H-M_alt    "P 1"
_space_group_IT_number       1

loop_
  _space_group_symop_operation_xyz
  'x, y, z'

loop_
  _atom_site_type_symbol
  _atom_site_label
  _atom_site_symmetry_multiplicity
  _atom_site_fract_x
  _atom_site_fract_y
  _atom_site_fract_z
  _atom_site_occupancy
  H   H1        1.0  0.002505468755786023  0.007061970896336989  0.00024019433060277419  1.0000
  Na  Na1       1.0  1.3318032055251735e-05  0.005942961385091886  0.9991664026909322  1.0000
  Na  Na2       1.0  0.009995560559731794  0.004059829156596617  0.9994395669103768  1.0000
  Na  Na3       1.0  0.005217864011778573  0.006833287583312986  0.9990250394029417  1.0000
  Na  Na4       1.0  0.004791014580008473  0.003169502958375518  0.998898301736379  1.0000
  Na  Na5       1.0  0.005004439236770075  0.005001395457058137  0.9993029848077118  1.0000
  Na  Na6       1.0  4.439350235119291e-06  1.395350010611873e-06  0.9993029848027587  1.0000
  Na  Na7       1.0  0.004911385381502571  0.008966325921277852  0.9994185974710837  1.0000
  Na  Na8       1.0  0.005097493239846199  0.0010364645273037106  0.9991873721266965  1.0000
  Ge  Ge1       1.0  0.008453595819920348  0.0022990737137405515  0.99906747891703  1.0000
  Ge  Ge2       1.0  0.0015552832238024802  0.007703716827947953  0.9995384906791833  1.0000
  Ge  Ge3       1.0  0.001584904577028188  0.001663057583363517  0.9989950114438994  1.0000
  Ge  Ge4       1.0  0.008423974122479855  0.008339733330752757  0.9989283294265545  1.0000
  Se  Se1       1.0  0.002471148929664241  0.0015493014764121293  0.999449363268824  1.0000
  Se  Se2       1.0  0.007537729858528973  0.008453489158383317  0.9991566063334657  1.0000
  Se  Se3       1.0  0.002552975593753188  0.009474506592197956  0.9990234172549254  1.0000
  Se  Se4       1.0  0.007455903316941886  0.0005282843684717881  0.9988999238951787  1.0000
  Se  Se5       1.0  0.0025030981786080394  0.005713559658900497  0.9988988357877571  1.0000
  Se  Se6       1.0  0.007505780413179006  0.0042892308827880065  0.9990245050711298  1.0000
  Se  Se7       1.0  0.0074576010391949115  0.0067395355960384075  0.9994461858064477  1.0000
  Se  Se8       1.0  0.002551277778560026  0.003263254945650096  0.9991597837923134  1.0000
  Se  Se9       1.0  0.0024693286116210123  0.007447673481264583  0.9993059001814609  1.0000
  Se  Se10      1.0  0.007539549980166033  0.0025551170604239206  0.9993000697002817  1.0000
  Na  Na9       1.0  1.3318032055251735e-05  0.005942961385091886  0.9998490317137879  1.0000
  Na  Na10      1.0  6.170034524380953e-05  0.0037907005602314738  9.90569156689565e-05  1.0000
  Na  Na11      1.0  0.005217864011778573  0.006833287583312986  0.99970766786493  1.0000
  Na  Na12      1.0  0.004791014580008473  0.003169502958375518  0.9995809301983671  1.0000
  Na  Na13      1.0  0.005622238230107506  0.005214830832342815  6.862832444205064e-07  1.0000
  Na  Na14      1.0  0.00016882592906567053  0.009998604825986968  0.9999767304411228  1.0000
  Na  Na15      1.0  0.004602973006120603  0.009154492072401198  0.0001087392305775819  1.0000
  Na  Na16      1.0  0.005097493239846199  0.0010364645273037106  0.9998700011495523  1.0000
  Ge  Ge5       1.0  0.008453595819920348  0.0022990737137405515  0.9997501079398857  1.0000
  Ge  Ge6       1.0  0.00035731180892832837  0.007627181431602335  0.00021922318853243557  1.0000
  Ge  Ge7       1.0  0.001584904577028188  0.001663057583363517  0.9996776401863213  1.0000
  Ge  Ge8       1.0  0.008423974122479855  0.008339733330752757  0.9996109584494103  1.0000
  Se  Se11      1.0  0.002343481605958382  0.00153800313516847  0.00011863587740093553  1.0000
  Se  Se12      1.0  0.007537729858528973  0.008453489158383317  0.9998392353563215  1.0000
  Se  Se13      1.0  0.002552975593753188  0.009474506592197956  0.9997060457169137  1.0000
  Se  Se14      1.0  0.007455903316941886  0.0005282843684717881  0.999582552357167  1.0000
  Se  Se15      1.0  0.0025030981786080394  0.005713559658900497  0.9995814648106128  1.0000
  Se  Se16      1.0  0.007505780413179006  0.0042892308827880065  0.9997071338135518  1.0000
  Se  Se17      1.0  0.008061325590361008  0.006805237813424485  0.00014265908275043541  1.0000
  Se  Se18      1.0  0.002551277778560026  0.003263254945650096  0.9998424128151691  1.0000
  Se  Se19      1.0  0.0025000580462735357  0.007272446215709592  1.7851710139098827e-05  1.0000
  Se  Se20      1.0  0.007476638431719955  0.0025511352489261925  0.9999804244408925  1.0000
