data_image0
_chemical_formula_structural       HTi4Ga4Pd4Ti4Ga4Pd4
_chemical_formula_sum              "H1 Ti8 Ga8 Pd8"
_cell_length_a       5.435962200164795
_cell_length_b       7.753969192504883
_cell_length_c       101.33729553222656
_cell_angle_alpha    90.0
_cell_angle_beta     90.0
_cell_angle_gamma    90.0

_space_group_name_H-M_alt    "P 1"
_space_group_IT_number       1

loop_
  _space_group_symop_operation_xyz
  'x, y, z'

loop_
  _atom_site_type_symbol
  _atom_site_label
  _atom_site_symmetry_multiplicity
  _atom_site_fract_x
  _atom_site_fract_y
  _atom_site_fract_z
  _atom_site_occupancy
  H   H1        1.0  0.008749811075207725  0.009999999730955526  8.009551132837974e-05  1.0000
  Ti  Ti1       1.0  0.0012498111197525288  0.004999999865477763  0.9993138512958271  1.0000
  Ti  Ti2       1.0  0.0012498111197525288  4.999999961912742e-11  0.9995347352178795  1.0000
  Ti  Ti3       1.0  0.006249811404153968  0.004999999865477763  0.9993138512958271  1.0000
  Ti  Ti4       1.0  0.006249811404153968  4.999999961912742e-11  0.9995347352178795  1.0000
  Ga  Ga1       1.0  0.008749811075207725  0.0066666669677402455  0.9995347352178795  1.0000
  Ga  Ga2       1.0  0.008749811075207725  0.0016666667419350614  0.9993138512958271  1.0000
  Ga  Ga3       1.0  0.0037498110477955384  0.003333333243651842  0.9995347352178795  1.0000
  Ga  Ga4       1.0  0.0037498110477955384  0.008333333589566167  0.9993138512958271  1.0000
  Pd  Pd1       1.0  0.0037498110477955384  0.0066666669677402455  0.9995347352178795  1.0000
  Pd  Pd2       1.0  0.0037498110477955384  0.0016666667419350614  0.9993138512958271  1.0000
  Pd  Pd3       1.0  0.008749811075207725  0.003333333243651842  0.9995347352178795  1.0000
  Pd  Pd4       1.0  0.008749811075207725  0.008333333589566167  0.9993138512958271  1.0000
  Ti  Ti5       1.0  0.001249811205415613  0.005000000826350886  0.9997654605799579  1.0000
  Ti  Ti6       1.0  0.0012498119763833702  0.009999998770082402  0.999958516201076  1.0000
  Ti  Ti7       1.0  0.006249810718849295  0.004999999385041201  0.999765471167211  1.0000
  Ti  Ti8       1.0  0.006249810033544622  9.499999963429524e-10  0.9999585167892567  1.0000
  Ga  Ga5       1.0  0.00874997897485263  0.0068809344677150325  0.0  1.0000
  Ga  Ga6       1.0  0.008750188678082593  0.0017383341845003694  0.9997574889664823  1.0000
  Ga  Ga7       1.0  0.003749635267146893  0.003119066464331898  5.881807330888911e-10  1.0000
  Ga  Ga8       1.0  0.003749437899401046  0.008261666867655702  0.9997574889664823  1.0000
  Pd  Pd5       1.0  0.003750280138844262  0.006514840846817946  0.9999799112752421  1.0000
  Pd  Pd6       1.0  0.003749866557474058  0.001673495907441506  0.9997517965533474  1.0000
  Pd  Pd7       1.0  0.008749338214983299  0.0034851608058838277  0.9999799118634228  1.0000
  Pd  Pd8       1.0  0.008749758992052572  0.00832650370340488  0.9997517965533474  1.0000
