data_image0
_chemical_formula_structural       HFe2Pt2Fe2Pt2Fe2Pt2Fe2Pt2Fe2Pt2Fe2Pt2
_chemical_formula_sum              "H1 Fe12 Pt12"
_cell_length_a       7.8763161651099995
_cell_length_b       5.34834623336792
_cell_length_c       99.41590118408203
_cell_angle_alpha    90.0
_cell_angle_beta     70.15231906278852
_cell_angle_gamma    90.0

_space_group_name_H-M_alt    "P 1"
_space_group_IT_number       1

loop_
  _space_group_symop_operation_xyz
  'x, y, z'

loop_
  _atom_site_type_symbol
  _atom_site_label
  _atom_site_symmetry_multiplicity
  _atom_site_fract_x
  _atom_site_fract_y
  _atom_site_fract_z
  _atom_site_occupancy
  H   H1        1.0  0.00795622116616009  0.0037499999303468746  0.99989956707213  1.0000
  Fe  Fe1       1.0  0.0012500000804549294  0.001249999947760156  0.9995628941535464  1.0000
  Fe  Fe2       1.0  0.006249999899431338  0.001249999947760156  0.9996973879138458  1.0000
  Pt  Pt1       1.0  0.0037499999899431335  0.0037499999303468746  0.9996301407339219  1.0000
  Pt  Pt2       1.0  0.008750000563184507  0.0037499999303468746  0.9997646350734808  1.0000
  Fe  Fe3       1.0  0.0012500000804549294  0.001249999947760156  0.9992939055634993  1.0000
  Fe  Fe4       1.0  0.006249999899431338  0.001249999947760156  0.9994283999233471  1.0000
  Pt  Pt3       1.0  0.0037499999899431335  0.0037499999303468746  0.999361152443649  1.0000
  Pt  Pt4       1.0  0.008750000563184507  0.0037499999303468746  0.9994956464834336  1.0000
  Fe  Fe5       1.0  0.0012500000804549294  0.001249999947760156  0.9990249169734522  1.0000
  Fe  Fe6       1.0  0.006249999899431338  0.001249999947760156  0.9991594113332999  1.0000
  Pt  Pt5       1.0  0.0037499999899431335  0.0037499999303468746  0.9990921641533761  1.0000
  Pt  Pt6       1.0  0.008750000563184507  0.0037499999303468746  0.9992266581931607  1.0000
  Fe  Fe7       1.0  0.0012500000804549294  0.0062499999999999995  0.9995628941535464  1.0000
  Fe  Fe8       1.0  0.006249999899431338  0.0062499999999999995  0.9996973879138458  1.0000
  Pt  Pt7       1.0  0.0037499999899431335  0.008749999721387498  0.9996301407339219  1.0000
  Pt  Pt8       1.0  0.008750000563184507  0.008749999721387498  0.9997646350734808  1.0000
  Fe  Fe9       1.0  0.0012500000804549294  0.0062499999999999995  0.9992939055634993  1.0000
  Fe  Fe10      1.0  0.006249999899431338  0.0062499999999999995  0.9994283999233471  1.0000
  Pt  Pt9       1.0  0.0037499999899431335  0.008749999721387498  0.999361152443649  1.0000
  Pt  Pt10      1.0  0.008750000563184507  0.008749999721387498  0.9994956464834336  1.0000
  Fe  Fe11      1.0  0.0012500000804549294  0.0062499999999999995  0.9990249169734522  1.0000
  Fe  Fe12      1.0  0.006249999899431338  0.0062499999999999995  0.9991594113332999  1.0000
  Pt  Pt11      1.0  0.0037499999899431335  0.008749999721387498  0.9990921641533761  1.0000
  Pt  Pt12      1.0  0.008750000563184507  0.008749999721387498  0.9992266581931607  1.0000
