data_image0
_chemical_formula_structural       HTi5Zn15Ti5Zn15
_chemical_formula_sum              "H1 Ti10 Zn30"
_cell_length_a       5.606854438781738
_cell_length_b       8.865215211457391
_cell_length_c       111.20179748535156
_cell_angle_alpha    75.03678346799646
_cell_angle_beta     90.0
_cell_angle_gamma    71.56505105572396

_space_group_name_H-M_alt    "P 1"
_space_group_IT_number       1

loop_
  _space_group_symop_operation_xyz
  'x, y, z'

loop_
  _atom_site_type_symbol
  _atom_site_label
  _atom_site_symmetry_multiplicity
  _atom_site_fract_x
  _atom_site_fract_y
  _atom_site_fract_z
  _atom_site_occupancy
  H   H1        1.0  0.00877295836750296  0.003444188041772877  0.999929104499131  1.0000
  Ti  Ti1       1.0  0.008495354738757298  0.004001217131114825  0.9987809014828509  1.0000
  Ti  Ti2       1.0  0.006495354718503143  0.008001217171623136  0.9989044057640828  1.0000
  Ti  Ti3       1.0  0.0004953546907797921  1.217349987010504e-06  0.9992749197429376  1.0000
  Ti  Ti4       1.0  0.00449535439461377  0.002001217341021526  0.999027910342824  1.0000
  Ti  Ti5       1.0  0.0024953546045204705  0.006001216921208125  0.9991514151695355  1.0000
  Zn  Zn1       1.0  0.0004953546495768584  0.005001217256322331  0.9989661580534535  1.0000
  Zn  Zn2       1.0  0.00849535377886874  0.009001217296830642  0.9990896628706896  1.0000
  Zn  Zn3       1.0  0.0024953546122907996  0.0010012173308944483  0.9988426537698527  1.0000
  Zn  Zn4       1.0  0.006495354234476955  0.003001217236068176  0.9992131674541684  1.0000
  Zn  Zn5       1.0  0.004495354329303226  0.007001217046415631  0.9987191491934804  1.0000
  Zn  Zn6       1.0  0.009495354633803948  0.002001217341021526  0.999027910342824  1.0000
  Zn  Zn7       1.0  0.007495354843710647  0.006001216921208125  0.9991514151695355  1.0000
  Zn  Zn8       1.0  0.0014953544793129651  0.008001217171623136  0.9989044057640828  1.0000
  Zn  Zn9       1.0  0.005495354390131027  1.217349987010504e-06  0.9992749197429376  1.0000
  Zn  Zn10      1.0  0.0034953544995671207  0.004001217131114825  0.9987809014828509  1.0000
  Zn  Zn11      1.0  0.005495354224349876  0.005001217256322331  0.9989661580534535  1.0000
  Zn  Zn12      1.0  0.0034953542040957212  0.009001217296830642  0.9990896628706896  1.0000
  Zn  Zn13      1.0  0.0074953541870638185  0.0010012173308944483  0.9988426537698527  1.0000
  Zn  Zn14      1.0  0.001495354659703936  0.003001217236068176  0.9992131674541684  1.0000
  Zn  Zn15      1.0  0.009495353904076244  0.007001217046415631  0.9987191491934804  1.0000
  Ti  Ti6       1.0  0.008495354738757298  0.004001217131114825  0.9993984240295085  1.0000
  Ti  Ti7       1.0  0.006495354718503143  0.008001217171623136  0.9995219288467447  1.0000
  Ti  Ti8       1.0  0.0004979102234924401  0.009996355504116058  0.9998816590342566  1.0000
  Ti  Ti9       1.0  0.004483184915547337  0.0020251902052996536  0.9996499055098195  1.0000
  Ti  Ti10      1.0  0.002468499331215446  0.006052239900409067  0.999762569219292  1.0000
  Zn  Zn16      1.0  0.0004953546495768584  0.005001217256322331  0.9995836811361153  1.0000
  Zn  Zn17      1.0  0.00853151145813944  0.00894362276486926  0.9997116421831981  1.0000
  Zn  Zn18      1.0  0.0024953546122907996  0.0010012173308944483  0.9994601763165103  1.0000
  Zn  Zn19      1.0  0.0065884150317527  0.0030499485036259506  0.9998320303226095  1.0000
  Zn  Zn20      1.0  0.004495354329303226  0.007001217046415631  0.999336671740138  1.0000
  Zn  Zn21      1.0  0.009504645238407756  0.0019837191317834627  0.9996431661171051  1.0000
  Zn  Zn22      1.0  0.007504486188966905  0.005979307909325726  0.9997726218715285  1.0000
  Zn  Zn23      1.0  0.0014953544793129651  0.008001217171623136  0.9995219288467447  1.0000
  Zn  Zn24      1.0  0.005496945546667353  0.009998782320181695  0.9998896448573302  1.0000
  Zn  Zn25      1.0  0.0034953544995671207  0.004001217131114825  0.9993984240295085  1.0000
  Zn  Zn26      1.0  0.005495354224349876  0.005001217256322331  0.9995836811361153  1.0000
  Zn  Zn27      1.0  0.003518597337117032  0.008943109045838674  0.9997116468615928  1.0000
  Zn  Zn28      1.0  0.0074953541870638185  0.0010012173308944483  0.9994601763165103  1.0000
  Zn  Zn29      1.0  0.0013522266847105931  0.0030508044718494053  0.9998319478467528  1.0000
  Zn  Zn30      1.0  0.009495353904076244  0.007001217046415631  0.999336671740138  1.0000
