data_image0
_chemical_formula_structural       COMo2Pt2Mo2Pt2Mo2Pt2
_chemical_formula_sum              "C1 O1 Mo6 Pt6"
_cell_length_a       4.512012004852295
_cell_length_b       5.6922360295965895
_cell_length_c       103.15982818603516
_cell_angle_alpha    119.04222459634303
_cell_angle_beta     90.0
_cell_angle_gamma    90.0

_space_group_name_H-M_alt    "P 1"
_space_group_IT_number       1

loop_
  _space_group_symop_operation_xyz
  'x, y, z'

loop_
  _atom_site_type_symbol
  _atom_site_label
  _atom_site_symmetry_multiplicity
  _atom_site_fract_x
  _atom_site_fract_y
  _atom_site_fract_z
  _atom_site_occupancy
  C   C1        1.0  0.007500014861490905  0.008244779812726328  0.0002208510544827128  1.0000
  O   O1        1.0  0.007500014861490905  0.008244779812726328  0.0003371750628206283  1.0000
  Mo  Mo1       1.0  0.007500000825638384  0.0017322522259277569  0.9994858325827055  1.0000
  Mo  Mo2       1.0  0.0025000002064095956  0.008436162834807217  0.9996654087218819  1.0000
  Pt  Pt1       1.0  0.007500000825638384  0.006744265745066996  0.9994861543861291  1.0000
  Pt  Pt2       1.0  0.0025000002064095956  0.0034241487542364577  0.9996650869034195  1.0000
  Mo  Mo3       1.0  0.007500000825638384  0.0017322522259277569  0.9997537003238692  1.0000
  Mo  Mo4       1.0  0.0025000218794171652  0.00833254727930106  0.999937091779095  1.0000
  Pt  Pt3       1.0  0.007500000825638384  0.006744265745066996  0.9997540221272928  1.0000
  Pt  Pt4       1.0  0.0025000107332989866  0.0032614837029515  0.9999301435367609  1.0000
  Mo  Mo5       1.0  0.007500008256383836  0.0015638376480238904  2.53272577974896e-05  1.0000
  Mo  Mo6       1.0  0.0025000090820222194  0.008257521313916718  0.00017727343802881017  1.0000
  Pt  Pt5       1.0  0.007500014861490905  0.006555179352188393  2.8803581701380348e-05  1.0000
  Pt  Pt6       1.0  0.002499985551328287  0.002971636820987054  0.00019724366558637973  1.0000
