data_image0
_chemical_formula_structural       HSn4Ir4Sn4Ir4
_chemical_formula_sum              "H1 Sn8 Ir8"
_cell_length_a       6.9849677129615335
_cell_length_b       7.008148670196533
_cell_length_c       102.36925506591797
_cell_angle_alpha    90.0
_cell_angle_beta     73.16400545745262
_cell_angle_gamma    59.89015769228589

_space_group_name_H-M_alt    "P 1"
_space_group_IT_number       1

loop_
  _space_group_symop_operation_xyz
  'x, y, z'

loop_
  _atom_site_type_symbol
  _atom_site_label
  _atom_site_symmetry_multiplicity
  _atom_site_fract_x
  _atom_site_fract_y
  _atom_site_fract_z
  _atom_site_occupancy
  H   H1        1.0  0.00773149214577911  0.0015509205512518694  0.9999577941263313  1.0000
  Sn  Sn1       1.0  0.0012499999934571888  0.008124999811907813  0.9995800453218118  1.0000
  Sn  Sn2       1.0  0.0012499999934571888  0.0031250000351653374  0.999777670771934  1.0000
  Sn  Sn3       1.0  0.006250000130856224  0.003958333416743572  0.9996788579859324  1.0000
  Sn  Sn4       1.0  0.006250000130856224  0.008958332927703278  0.9998764840183061  1.0000
  Ir  Ir1       1.0  0.00874999979063004  0.0010416667288264039  0.9998270776333867  1.0000
  Ir  Ir2       1.0  0.00874999979063004  0.006041666771351647  0.999629451601013  1.0000
  Ir  Ir3       1.0  0.003749999816801286  0.0035416667157407806  0.9995306389336598  1.0000
  Ir  Ir4       1.0  0.003749999816801286  0.008541666758266023  0.999728264383782  1.0000
  Sn  Sn5       1.0  0.0012499999934571888  0.008124999811907813  0.9991847944215672  1.0000
  Sn  Sn6       1.0  0.0012499999934571888  0.0031250000351653374  0.9993824198716895  1.0000
  Sn  Sn7       1.0  0.006250000130856224  0.003958333416743572  0.9992836070856879  1.0000
  Sn  Sn8       1.0  0.006250000130856224  0.008958332927703278  0.9994812325358101  1.0000
  Ir  Ir5       1.0  0.00874999979063004  0.0010416667288264039  0.9994318261508908  1.0000
  Ir  Ir6       1.0  0.00874999979063004  0.006041666771351647  0.9992342007007684  1.0000
  Ir  Ir7       1.0  0.003749999816801286  0.0035416667157407806  0.9991353880334153  1.0000
  Ir  Ir8       1.0  0.003749999816801286  0.008541666758266023  0.9993330134835375  1.0000
