data_image0
_chemical_formula_structural       COCo6Fe3Se12
_chemical_formula_sum              "C1 O1 Co6 Fe3 Se12"
_cell_length_a       6.3544328813355
_cell_length_b       6.420022202294674
_cell_length_c       101.00590515136719
_cell_angle_alpha    93.21885703330585
_cell_angle_beta     93.74033615058345
_cell_angle_gamma    111.96727721756268

_space_group_name_H-M_alt    "P 1"
_space_group_IT_number       1

loop_
  _space_group_symop_operation_xyz
  'x, y, z'

loop_
  _atom_site_type_symbol
  _atom_site_label
  _atom_site_symmetry_multiplicity
  _atom_site_fract_x
  _atom_site_fract_y
  _atom_site_fract_z
  _atom_site_occupancy
  C   C1        1.0  0.00600047862716113  0.001302028481749426  0.00011078492348743725  1.0000
  O   O1        1.0  0.00600047862716113  0.001302028481749426  0.00022959009929089016  1.0000
  Co  Co1       1.0  0.000883634366984805  0.005698747736832022  0.999931031442374  1.0000
  Co  Co2       1.0  0.005725540747116859  0.0010478426566806435  0.9999382841775873  1.0000
  Co  Co3       1.0  0.0026932963401238227  0.007621557449274528  0.9996303734594671  1.0000
  Co  Co4       1.0  0.007768901384501424  0.003135327004006554  0.9996416809837803  1.0000
  Co  Co5       1.0  0.004693296256923149  0.009621557157849318  0.9993234022245655  1.0000
  Co  Co6       1.0  0.009768901238066839  0.005135327026617131  0.9993347100447951  1.0000
  Fe  Fe1       1.0  0.00803923832127894  0.008577544560120377  0.9999291735364496  1.0000
  Fe  Fe2       1.0  0.00023109878956009575  0.00037844236638646565  0.9996360272277249  1.0000
  Fe  Fe3       1.0  0.0022310987565965228  0.002378442349742569  0.9993290559940101  1.0000
  Se  Se1       1.0  0.006948789367753115  0.004659756885352679  0.999854383388977  1.0000
  Se  Se2       1.0  0.009359302474672676  0.0023206098334784295  4.669290760835165e-05  1.0000
  Se  Se3       1.0  0.004677233279661822  0.007718295544996897  4.6210565345499906e-05  1.0000
  Se  Se4       1.0  0.0017873232920781667  0.00941116825512834  0.999849242909958  1.0000
  Se  Se5       1.0  0.008860453105974631  0.006489777502078364  0.9995351237693932  1.0000
  Se  Se6       1.0  0.0016017444363270314  0.004267106637166932  0.9997369309670403  1.0000
  Se  Se7       1.0  0.006559681767448531  0.009459233316348938  0.9997398097783877  1.0000
  Se  Se8       1.0  0.003902515803672445  0.0012976512154410902  0.9995322446645099  1.0000
  Se  Se9       1.0  0.0008604529506500722  0.008489777838724726  0.999228152450871  1.0000
  Se  Se10      1.0  0.0036017444620121855  0.006267106659777508  0.9994299597337063  1.0000
  Se  Se11      1.0  0.008559682248866541  0.0014592333829245247  0.9994328386444492  1.0000
  Se  Se12      1.0  0.005902515920898764  0.0032976511595427206  0.9992252734312713  1.0000
