data_image0
_chemical_formula_structural       HV6Au2V6Au2
_chemical_formula_sum              "H1 V12 Au4"
_cell_length_a       4.8841705322265625
_cell_length_b       4.8841705322265625
_cell_length_c       35.81080627441406
_cell_angle_alpha    90.0
_cell_angle_beta     90.0
_cell_angle_gamma    90.0

_space_group_name_H-M_alt    "P 1"
_space_group_IT_number       1

loop_
  _space_group_symop_operation_xyz
  'x, y, z'

loop_
  _atom_site_type_symbol
  _atom_site_label
  _atom_site_symmetry_multiplicity
  _atom_site_fract_x
  _atom_site_fract_y
  _atom_site_fract_z
  _atom_site_occupancy
  H   H1        1.0  0.009999995850763381  0.005000007078109526  0.0005789954878452271  1.0000
  V   V1        1.0  0.0022689341534942236  0.009999998138945341  0.9999418963502659  1.0000
  V   V2        1.0  0.007731049874995705  0.009999995850763381  0.99994189551805  1.0000
  V   V3        1.0  0.009999995850763381  0.005000007078109526  0.00023495119300080065  1.0000
  V   V4        1.0  0.009999996613490702  0.005000001739018289  0.9996234252178249  1.0000
  V   V5        1.0  0.005000003264472928  0.002500001822918294  0.9992689270429476  1.0000
  V   V6        1.0  0.005000003264472928  0.007500001464436454  0.9992689270429476  1.0000
  Au  Au1       1.0  0.004999966272197928  0.005000001739018289  0.0  1.0000
  Au  Au2       1.0  3.4999998153637523e-09  1.8000000245445688e-09  0.9992689270429476  1.0000
  V   V7        1.0  0.002500003539054763  1.8000000245445688e-09  0.9985869864482229  1.0000
  V   V8        1.0  0.007500003752618412  1.8000000245445688e-09  0.9985869864482229  1.0000
  V   V9        1.0  3.4999998153637523e-09  0.005000001739018289  0.9989279569536392  1.0000
  V   V10       1.0  3.4999998153637523e-09  0.005000001739018289  0.9982460159428066  1.0000
  V   V11       1.0  0.005000003264472928  0.002500001822918294  0.9979050454373903  1.0000
  V   V12       1.0  0.005000003264472928  0.007500001464436454  0.9979050454373903  1.0000
  Au  Au3       1.0  0.005000003264472928  0.005000001739018289  0.9985869864482229  1.0000
  Au  Au4       1.0  3.4999998153637523e-09  1.8000000245445688e-09  0.9979050454373903  1.0000
