data_image0
_chemical_formula_structural       HFe10Sn10Rh20
_chemical_formula_sum              "H1 Fe10 Sn10 Rh20"
_cell_length_a       9.207670744810292
_cell_length_b       8.163663108032425
_cell_length_c       106.57357025146484
_cell_angle_alpha    63.99032780311649
_cell_angle_beta     78.3808097813693
_cell_angle_gamma    76.96319285387669

_space_group_name_H-M_alt    "P 1"
_space_group_IT_number       1

loop_
  _space_group_symop_operation_xyz
  'x, y, z'

loop_
  _atom_site_type_symbol
  _atom_site_label
  _atom_site_symmetry_multiplicity
  _atom_site_fract_x
  _atom_site_fract_y
  _atom_site_fract_z
  _atom_site_occupancy
  H   H1        1.0  0.0025341435295373606  0.007282295967721665  0.9998005352608458  1.0000
  Fe  Fe1       1.0  0.004250000176410511  0.008195952993873133  0.9990082589583706  1.0000
  Fe  Fe2       1.0  0.008250000417966964  0.006195952652552198  0.9991798472722538  1.0000
  Fe  Fe3       1.0  0.0003581324982955194  0.0004954263719629345  0.9996572936085218  1.0000
  Fe  Fe4       1.0  0.002250000015609895  0.00419595256825004  0.9993514356670076  1.0000
  Fe  Fe5       1.0  0.0061632059789686906  0.0023678903342912033  0.9995248246140781  1.0000
  Fe  Fe6       1.0  0.004286228204650991  0.008276178320465451  0.9994397337922012  1.0000
  Fe  Fe7       1.0  0.008137715816515685  0.006421813556063419  0.9995928029270855  1.0000
  Fe  Fe8       1.0  0.00025000000835949306  0.00019595256028245845  0.9992656416371328  1.0000
  Fe  Fe9       1.0  0.002250000015609895  0.00419595256825004  0.9989224649451974  1.0000
  Fe  Fe10      1.0  0.00625000019196673  0.0021959527409666575  0.9990940532429479  1.0000
  Sn  Sn1       1.0  0.005249999993963622  0.005195952738910508  0.9992656414691913  1.0000
  Sn  Sn2       1.0  0.009242710841455698  0.0032641135198718855  0.9994249322562162  1.0000
  Sn  Sn3       1.0  0.0012500000241316897  0.00719595256619389  0.999094053167847  1.0000
  Sn  Sn4       1.0  0.0033321272343300374  0.0014885733297349058  0.9996268077355678  1.0000
  Sn  Sn5       1.0  0.0072500001873640465  0.009195952907514824  0.9989224647686207  1.0000
  Sn  Sn6       1.0  0.0032500000070881004  0.0011959525703061906  0.999179847444358  1.0000
  Sn  Sn7       1.0  0.0072500001873640465  0.009195952907514824  0.9993514354904308  1.0000
  Sn  Sn8       1.0  0.00924999978987046  0.003195952654608349  0.9990082590603854  1.0000
  Sn  Sn9       1.0  0.0010466598914085955  0.007198423030665391  0.999548657527292  1.0000
  Sn  Sn10      1.0  0.005243764372728094  0.005458943602826526  0.9996974031996898  1.0000
  Rh  Rh1       1.0  0.0027500002035335514  0.007695952780033512  0.9992656417018578  1.0000
  Rh  Rh2       1.0  0.00671424039966083  0.005797801782975023  0.999431104966279  1.0000
  Rh  Rh3       1.0  0.008750000160241005  0.009695953121354446  0.9990940533062252  1.0000
  Rh  Rh4       1.0  0.0006570382326439454  0.003758589629166566  0.9995955864908729  1.0000
  Rh  Rh5       1.0  0.004750000202789866  0.0016959526556364242  0.9989224647013102  1.0000
  Rh  Rh6       1.0  0.005750000214487087  0.008695952693675202  0.9991798475121079  1.0000
  Rh  Rh7       1.0  0.009750000390843921  0.00669595286639182  0.9993514358098584  1.0000
  Rh  Rh8       1.0  0.0017500000097612851  0.0006959525492306511  0.9990082589007035  1.0000
  Rh  Rh9       1.0  0.003709842418521668  0.005006418869148969  0.9995153253117455  1.0000
  Rh  Rh10      1.0  0.007720659543867327  0.0030064385752925356  0.9996655078186915  1.0000
  Rh  Rh11      1.0  0.004750000202789866  0.0016959526556364242  0.999351435982402  1.0000
  Rh  Rh12      1.0  0.00860532389219333  0.009804048021865068  0.9995379915003254  1.0000
  Rh  Rh13      1.0  0.0007500000101331273  0.0036959526114291948  0.9991798471213367  1.0000
  Rh  Rh14      1.0  0.0027617187529173004  0.008266806387830327  0.9996653631075718  1.0000
  Rh  Rh15      1.0  0.006750000379890386  0.005695952952750129  0.9990082587185165  1.0000
  Rh  Rh16      1.0  0.001836809900400935  0.0008311103702322154  0.9994290609119487  1.0000
  Rh  Rh17      1.0  0.005818906625111205  0.008977114785029331  0.9995971919180471  1.0000
  Rh  Rh18      1.0  0.007749999784393693  0.0026959526977875033  0.9992656417958063  1.0000
  Rh  Rh19      1.0  0.009750000390843921  0.00669595286639182  0.9989224645287665  1.0000
  Rh  Rh20      1.0  0.0037500000210866627  0.004695952525070886  0.9990940529315866  1.0000
