data_image0
_chemical_formula_structural       COCaGa2CaGa2CaGa2CaGa2CaGa2CaGa2CaGa2CaGa2
_chemical_formula_sum              "C1 O1 Ca8 Ga16"
_cell_length_a       8.719841003417969
_cell_length_b       8.71984138881132
_cell_length_c       101.15448760986328
_cell_angle_alpha    90.0
_cell_angle_beta     90.0
_cell_angle_gamma    119.99999853796547

_space_group_name_H-M_alt    "P 1"
_space_group_IT_number       1

loop_
  _space_group_symop_operation_xyz
  'x, y, z'

loop_
  _atom_site_type_symbol
  _atom_site_label
  _atom_site_symmetry_multiplicity
  _atom_site_fract_x
  _atom_site_fract_y
  _atom_site_fract_z
  _atom_site_occupancy
  C   C1        1.0  0.0008333302852991447  0.0033333246411915447  0.00017122832742807437  1.0000
  O   O1        1.0  0.0008333302852991447  0.0033333246411915447  0.00028985840502119355  1.0000
  Ca  Ca1       1.0  0.0008333296828168889  0.0008333236989673207  0.9995830882786625  1.0000
  Ga  Ga1       1.0  0.002499996408250027  0.004166657096431099  0.9993630959101698  1.0000
  Ga  Ga2       1.0  0.004166663200793222  0.002499990459363099  0.9993630959101698  1.0000
  Ca  Ca2       1.0  0.0008333303630367419  0.0008333246855895443  0.0  1.0000
  Ga  Ga3       1.0  0.0024999924902835923  0.0041666763355644575  0.9998085983251828  1.0000
  Ga  Ga4       1.0  0.00416667047412472  0.0024999746734075223  0.9998085983251828  1.0000
  Ca  Ca3       1.0  0.0008333294923790541  0.005833323486843543  0.9995830882786625  1.0000
  Ga  Ga5       1.0  0.0024999961294470546  0.009166656760979544  0.9993630959101698  1.0000
  Ga  Ga6       1.0  0.0041666629652142816  0.007499990370567099  0.9993630959101698  1.0000
  Ca  Ca4       1.0  0.0008333301993001558  0.005833324473465767  0.0  1.0000
  Ga  Ga7       1.0  0.002499992538239922  0.009166676493424014  0.9998085983251828  1.0000
  Ga  Ga8       1.0  0.004166670265247029  0.007499974584611523  0.9998085983251828  1.0000
  Ca  Ca5       1.0  0.005833329718062537  0.0008333236989673207  0.9995830882786625  1.0000
  Ga  Ga9       1.0  0.007499996844014407  0.004166657096431099  0.9993630959101698  1.0000
  Ga  Ga10      1.0  0.009166663422947611  0.002499990459363099  0.9993630959101698  1.0000
  Ca  Ca6       1.0  0.00583333063859363  0.0008333246855895443  0.0  1.0000
  Ga  Ga11      1.0  0.007499992792541728  0.0041666763355644575  0.9998085983251828  1.0000
  Ga  Ga12      1.0  0.009166670909889102  0.0024999746734075223  0.9998085983251828  1.0000
  Ca  Ca7       1.0  0.005833329714533444  0.005833323486843543  0.9995830882786625  1.0000
  Ga  Ga13      1.0  0.007499996351601445  0.009166656760979544  0.9993630959101698  1.0000
  Ga  Ga14      1.0  0.009166663053862427  0.007499990370567099  0.9993630959101698  1.0000
  Ca  Ca8       1.0  0.005833330421454546  0.005833324473465767  0.0  1.0000
  Ga  Ga15      1.0  0.007499992760394312  0.009166676493424014  0.9998085983251828  1.0000
  Ga  Ga16      1.0  0.009166670540803916  0.007499974584611523  0.9998085983251828  1.0000
