data_image0
_chemical_formula_structural       HTi12Mn12Si24
_chemical_formula_sum              "H1 Ti12 Mn12 Si24"
_cell_length_a       8.681028366088867
_cell_length_b       7.738742828369141
_cell_length_c       108.02191162109375
_cell_angle_alpha    90.0
_cell_angle_beta     90.0
_cell_angle_gamma    90.0

_space_group_name_H-M_alt    "P 1"
_space_group_IT_number       1

loop_
  _space_group_symop_operation_xyz
  'x, y, z'

loop_
  _atom_site_type_symbol
  _atom_site_label
  _atom_site_symmetry_multiplicity
  _atom_site_fract_x
  _atom_site_fract_y
  _atom_site_fract_z
  _atom_site_occupancy
  H   H1        1.0  0.00895554544120778  0.009999939538440306  5.4617127814746155e-05  1.0000
  Ti  Ti1       1.0  0.0022949586407186293  6.04499974525931e-08  0.9995317101207333  1.0000
  Ti  Ti2       1.0  0.0023082140394083393  0.002478000416453062  0.9997821671426538  1.0000
  Ti  Ti3       1.0  0.0038983870497526123  0.007601150745225309  0.9993327079587684  1.0000
  Ti  Ti4       1.0  0.00733174815890155  0.007601150745225309  0.9994154224241608  1.0000
  Ti  Ti5       1.0  0.0023082470824236233  0.00752217283287285  0.99978212851785  1.0000
  Ti  Ti6       1.0  0.008992817104188002  0.007727256902938633  0.9998527136913072  1.0000
  Ti  Ti7       1.0  0.00733174815890155  0.0023989697927886077  0.9994154224241608  1.0000
  Ti  Ti8       1.0  0.0038983870497526123  0.0023989697927886077  0.9993327079587684  1.0000
  Ti  Ti9       1.0  0.003935271637410935  1.2694999129350984e-07  0.99996937494491  1.0000
  Ti  Ti10      1.0  0.007294958838118461  6.04499974525931e-08  0.9996563992638986  1.0000
  Ti  Ti11      1.0  0.008935176353370499  6.04499974525931e-08  0.9992164202621959  1.0000
  Ti  Ti12      1.0  0.008993372398496801  0.0022730070868650074  0.9998526811361156  1.0000
  Mn  Mn1       1.0  0.0012349553391978636  0.003011530837783099  0.9999762639545456  1.0000
  Mn  Mn2       1.0  0.006593391254128712  0.00289236283659759  0.9999999961375197  1.0000
  Mn  Mn3       1.0  0.004767613176773135  0.002477092289603015  0.9995913390927227  1.0000
  Mn  Mn4       1.0  0.0012336703092073707  0.006990980964544418  0.9999763141667904  1.0000
  Mn  Mn5       1.0  0.009767613159607932  0.007523028248410901  0.9995967702919092  1.0000
  Mn  Mn6       1.0  0.004767613176773135  0.007523028248410901  0.9995913390927227  1.0000
  Mn  Mn7       1.0  0.006591722367291835  0.007107690548648989  0.0  1.0000
  Mn  Mn8       1.0  0.009767613159607932  0.002477092289603015  0.9995967702919092  1.0000
  Mn  Mn9       1.0  0.0006150675142097667  0.00243643574176244  0.9993740651914647  1.0000
  Mn  Mn10      1.0  0.0056220849537742465  0.007560606840736396  0.9998191343905153  1.0000
  Mn  Mn11      1.0  0.0006150675142097667  0.007563684796251476  0.9993740651914647  1.0000
  Mn  Mn12      1.0  0.005623124306800452  0.002439008246340574  0.9998191101120671  1.0000
  Si  Si1       1.0  0.008961534380445488  0.005000227789888918  1.0654927998775025e-05  1.0000
  Si  Si2       1.0  0.005232386788896459  6.04499974525931e-08  0.9994801951164405  1.0000
  Si  Si3       1.0  0.005997748419757703  6.04499974525931e-08  0.9992679352664887  1.0000
  Si  Si4       1.0  0.000232386806061662  6.04499974525931e-08  0.9997079142681914  1.0000
  Si  Si5       1.0  0.0009536567170445684  3.4314998060304953e-07  0.9999524037579365  1.0000
  Si  Si6       1.0  0.004316473456060047  6.04499974525931e-08  0.9997226529415096  1.0000
  Si  Si7       1.0  0.006957434306983913  0.009999536140454438  0.9999287190282928  1.0000
  Si  Si8       1.0  0.009316473868024913  6.04499974525931e-08  0.9994654564431222  1.0000
  Si  Si9       1.0  0.004364205164462965  0.005000060269006958  0.9997283065092091  1.0000
  Si  Si10      1.0  0.0069542720475082274  0.005000529616305551  0.9998525575367436  1.0000
  Si  Si11      1.0  0.009364205147297763  0.005000060269006958  0.9994598028754228  1.0000
  Si  Si12      1.0  0.0018659300613563991  0.005000060269006958  0.9992883275075064  1.0000
  Si  Si13      1.0  0.005240158763569299  0.005000060269006958  0.9994831951601241  1.0000
  Si  Si14      1.0  0.005989976874214932  0.005000060269006958  0.9992649346710223  1.0000
  Si  Si15      1.0  0.0002401585125282086  0.005000060269006958  0.9997049142245079  1.0000
  Si  Si16      1.0  0.001913661769759318  6.04499974525931e-08  0.999282673939807  1.0000
  Si  Si17      1.0  0.003914169595416446  0.0033880795105709917  0.9999912906585431  1.0000
  Si  Si18      1.0  0.00893710572215903  0.0065396383097073695  0.9992134756726949  1.0000
  Si  Si19      1.0  0.00893710572215903  0.003460482228306547  0.9992134756726949  1.0000
  Si  Si20      1.0  0.0022930297010601668  0.0065396383097073695  0.9995346549861258  1.0000
  Si  Si21      1.0  0.0072930294693299294  0.0065396383097073695  0.999653454950289  1.0000
  Si  Si22      1.0  0.003912332918722738  0.006611693951132889  0.9999912553444369  1.0000
  Si  Si23      1.0  0.0022930297010601668  0.003460482228306547  0.9995346549861258  1.0000
  Si  Si24      1.0  0.0072930294693299294  0.003460482228306547  0.999653454950289  1.0000
