data_image0
_chemical_formula_structural       COMn4Zn12Mn4Zn12
_chemical_formula_sum              "C1 O1 Mn8 Zn24"
_cell_length_a       6.919621542531321
_cell_length_b       5.416568964408737
_cell_length_c       111.51773071289062
_cell_angle_alpha    66.95885815280529
_cell_angle_beta     76.96762948868232
_cell_angle_gamma    66.95885809280294

_space_group_name_H-M_alt    "P 1"
_space_group_IT_number       1

loop_
  _space_group_symop_operation_xyz
  'x, y, z'

loop_
  _atom_site_type_symbol
  _atom_site_label
  _atom_site_symmetry_multiplicity
  _atom_site_fract_x
  _atom_site_fract_y
  _atom_site_fract_z
  _atom_site_occupancy
  C   C1        1.0  0.006036048107673402  0.0037726960515477924  0.9999223854791444  1.0000
  O   O1        1.0  0.006036048107673402  0.0037726960515477924  2.999190407769411e-05  1.0000
  Mn  Mn1       1.0  0.007843977709591471  0.008444007468013538  0.9996904087091427  1.0000
  Mn  Mn2       1.0  0.00299325080044795  0.008351744741355678  0.9993821693294149  1.0000
  Mn  Mn3       1.0  0.002022385884494985  0.0016851602086229204  0.9996490351330805  1.0000
  Mn  Mn4       1.0  0.007159917662842304  0.0016850773474168458  0.9993304612384785  1.0000
  Zn  Zn1       1.0  0.009668545143573305  0.006702332917515719  0.9994861203245765  1.0000
  Zn  Zn2       1.0  0.004654782746964499  0.006732441920717508  0.9998013199513798  1.0000
  Zn  Zn3       1.0  0.002147747706697833  0.006755353367382124  0.9996327241825195  1.0000
  Zn  Zn4       1.0  0.007142662701380303  0.006702332800329092  0.9993293908445707  1.0000
  Zn  Zn5       1.0  0.009668545143573305  0.001650567385687269  0.999486120764114  1.0000
  Zn  Zn6       1.0  0.004654699954152746  0.001555992368780556  0.9998012145064663  1.0000
  Zn  Zn7       1.0  0.00033302516742937834  0.0036720068139160667  0.9998360100371424  1.0000
  Zn  Zn8       1.0  0.005484623319716949  0.0033344890516757864  0.9995367580987616  1.0000
  Zn  Zn9       1.0  0.007883584381494245  0.00330988593066785  0.9997046523169572  1.0000
  Zn  Zn10      1.0  0.0030105060555014823  0.0033344891541833344  0.9993832402562529  1.0000
  Zn  Zn11      1.0  0.0003314550766203434  0.008377283874578798  0.9998361062919547  1.0000
  Zn  Zn12      1.0  0.005484623319716949  0.008386254209813553  0.9995367576663281  1.0000
  Mn  Mn5       1.0  0.00799325080044795  0.008351744621774659  0.9990719219167952  1.0000
  Mn  Mn6       1.0  0.00299325080044795  0.008351744741355678  0.9987616740613504  1.0000
  Mn  Mn7       1.0  0.002159917369250773  0.0016850776012579628  0.9990202139190753  1.0000
  Mn  Mn8       1.0  0.007159917662842304  0.0016850773474168458  0.9987099662376568  1.0000
  Zn  Zn13      1.0  0.009668545143573305  0.006702332917515719  0.9988656255909978  1.0000
  Zn  Zn14      1.0  0.004668545143573305  0.006702333037096738  0.9991758730036175  1.0000
  Zn  Zn15      1.0  0.0021426622609930063  0.006702333121300258  0.9990191429914594  1.0000
  Zn  Zn16      1.0  0.007142662701380303  0.006702332800329092  0.9987088955765061  1.0000
  Zn  Zn17      1.0  0.009668545143573305  0.001650567385687269  0.9988656254960495  1.0000
  Zn  Zn18      1.0  0.004668545143573305  0.001650567505268288  0.9991758729086693  1.0000
  Zn  Zn19      1.0  0.00048462317292118404  0.003334489238386855  0.9992265102440947  1.0000
  Zn  Zn20      1.0  0.005484623319716949  0.0033344890516757864  0.9989162628306971  1.0000
  Zn  Zn21      1.0  0.008010506349093014  0.003334488900342218  0.9990729923075916  1.0000
  Zn  Zn22      1.0  0.0030105060555014823  0.0033344891541833344  0.9987627449881883  1.0000
  Zn  Zn23      1.0  0.00048462317292118404  0.00838625439652462  0.9992265103461471  1.0000
  Zn  Zn24      1.0  0.005484623319716949  0.008386254209813553  0.9989162623982636  1.0000
