data_image0
_chemical_formula_structural       COAs2Ca2Na2
_chemical_formula_sum              "C1 O1 As2 Ca2 Na2"
_cell_length_a       4.982363224029541
_cell_length_b       4.982363224029541
_cell_length_c       98.18450164794922
_cell_angle_alpha    90.0
_cell_angle_beta     90.0
_cell_angle_gamma    90.0

_space_group_name_H-M_alt    "P 1"
_space_group_IT_number       1

loop_
  _space_group_symop_operation_xyz
  'x, y, z'

loop_
  _atom_site_type_symbol
  _atom_site_label
  _atom_site_symmetry_multiplicity
  _atom_site_fract_x
  _atom_site_fract_y
  _atom_site_fract_z
  _atom_site_occupancy
  C   C1        1.0  0.004999995723182042  0.005000005443222855  0.00017640781828669123  1.0000
  O   O1        1.0  0.004999995723182042  0.005000005443222855  0.0002986263406872776  1.0000
  As  As1       1.0  9.84999990116284e-09  0.009999998923318557  0.9998249334979131  1.0000
  As  As2       1.0  0.005000000957050173  0.005000000957050173  0.9994427797945162  1.0000
  Ca  Ca1       1.0  0.005000000957050173  1.149999976244542e-09  0.9996221898663744  1.0000
  Ca  Ca2       1.0  0.009999998923318557  0.004999997966268384  0.9999687530086278  1.0000
  Na  Na1       1.0  1.149999976244542e-09  0.005000000957050173  0.9996221898663744  1.0000
  Na  Na2       1.0  0.004999995723182042  5.349999955365831e-09  0.0  1.0000
