data_image0
_chemical_formula_structural       COSb8V12
_chemical_formula_sum              "C1 O1 Sb8 V12"
_cell_length_a       5.544147968292236
_cell_length_b       7.579562628819467
_cell_length_c       37.26179885864258
_cell_angle_alpha    89.07049701222654
_cell_angle_beta     90.0
_cell_angle_gamma    111.45251946966316

_space_group_name_H-M_alt    "P 1"
_space_group_IT_number       1

loop_
  _space_group_symop_operation_xyz
  'x, y, z'

loop_
  _atom_site_type_symbol
  _atom_site_label
  _atom_site_symmetry_multiplicity
  _atom_site_fract_x
  _atom_site_fract_y
  _atom_site_fract_z
  _atom_site_occupancy
  C   C1        1.0  0.0012347542255256164  0.00100489412382522  9.263512367499186e-05  1.0000
  O   O1        1.0  0.0012347542255256164  0.00100489412382522  0.0004146810201454616  1.0000
  Sb  Sb1       1.0  0.009641280596792453  0.0078133086072811  0.9982255055231496  1.0000
  Sb  Sb2       1.0  0.006466940473783246  0.0014646283612626888  0.9985044029887749  1.0000
  Sb  Sb3       1.0  0.0027813587330005754  0.0040934652962951725  0.9979496183256574  1.0000
  Sb  Sb4       1.0  0.003326861872929722  0.005184471408170472  0.9987802897872339  1.0000
  Sb  Sb5       1.0  0.005294951573684901  0.009113058986252252  0.999480730221068  1.0000
  Sb  Sb6       1.0  0.002153589695963373  0.002855587106391736  0.9997759975351284  1.0000
  Sb  Sb7       1.0  0.008495644638986005  0.0055220366916682055  0.9992047606563663  1.0000
  Sb  Sb8       1.0  0.00892279846814772  0.006394165329853801  0.999978900444909  1.0000
  V   V1        1.0  0.006636865500251628  0.00708916830544409  0.9976108735940711  1.0000
  V   V2        1.0  0.004616018144951869  0.007762784120197758  0.9982027121273526  1.0000
  V   V3        1.0  0.0019215549748984409  0.00708916830544409  0.9976108735940711  1.0000
  V   V4        1.0  0.008472380291655285  0.0007601971356875932  0.9978638925875801  1.0000
  V   V5        1.0  0.0037570694303361105  0.0007601971356875932  0.9978638925875801  1.0000
  V   V6        1.0  0.0014922025269979652  0.0015151527163069583  0.9985271959851031  1.0000
  V   V7        1.0  0.0023511511576222257  0.008517739700817123  0.99886601592478  1.0000
  V   V8        1.0  0.0003587194421324487  0.009239802763962713  0.9994794661921732  1.0000
  V   V9        1.0  0.007635840712900876  0.008517739700817123  0.99886601592478  1.0000
  V   V10       1.0  0.004186665613059895  0.0021887685310606263  0.9991190345183845  1.0000
  V   V11       1.0  0.009471355504304535  0.0021887685310606263  0.9991190345183845  1.0000
  V   V12       1.0  0.007105239741686232  0.0027592548319793717  0.9997053799528594  1.0000
