data_image0
_chemical_formula_structural       HNa8
_chemical_formula_sum              "H1 Na8"
_cell_length_a       6.186368465423584
_cell_length_b       6.641829967498779
_cell_length_c       100.67729949951172
_cell_angle_alpha    90.0
_cell_angle_beta     90.0
_cell_angle_gamma    90.0

_space_group_name_H-M_alt    "P 1"
_space_group_IT_number       1

loop_
  _space_group_symop_operation_xyz
  'x, y, z'

loop_
  _atom_site_type_symbol
  _atom_site_label
  _atom_site_symmetry_multiplicity
  _atom_site_fract_x
  _atom_site_fract_y
  _atom_site_fract_z
  _atom_site_occupancy
  H   H1        1.0  0.007499999518258207  0.008611110622519595  0.0001489907433895563  1.0000
  Na  Na1       1.0  0.007499999518258207  0.0030555554907423952  0.9996191135578273  1.0000
  Na  Na2       1.0  0.007499999518258207  0.008055555333695123  0.9994286701887318  1.0000
  Na  Na3       1.0  0.002499999939782276  0.006388888906338586  0.9996191135578273  1.0000
  Na  Na4       1.0  0.002499999939782276  0.0013888889231650796  0.9994286701887318  1.0000
  Na  Na5       1.0  0.007499999518258207  0.0030555554907423952  0.0  1.0000
  Na  Na6       1.0  0.007499999518258207  0.008055555333695123  0.9998095566309045  1.0000
  Na  Na7       1.0  0.002499999939782276  0.006388888906338586  0.0  1.0000
  Na  Na8       1.0  0.002499999939782276  0.0013888889231650796  0.9998095566309045  1.0000
