data_image0
_chemical_formula_structural       CONa6Sn2Na6Sn2
_chemical_formula_sum              "C1 O1 Na12 Sn4"
_cell_length_a       4.970526695251465
_cell_length_b       9.66623592376709
_cell_length_c       104.79368591308594
_cell_angle_alpha    90.0
_cell_angle_beta     90.0
_cell_angle_gamma    90.0

_space_group_name_H-M_alt    "P 1"
_space_group_IT_number       1

loop_
  _space_group_symop_operation_xyz
  'x, y, z'

loop_
  _atom_site_type_symbol
  _atom_site_label
  _atom_site_symmetry_multiplicity
  _atom_site_fract_x
  _atom_site_fract_y
  _atom_site_fract_z
  _atom_site_occupancy
  C   C1        1.0  0.009999998501048067  0.009999999044227761  0.00011005170591309334  1.0000
  O   O1        1.0  0.009999998501048067  0.009999999044227761  0.00022456208513577718  1.0000
  Na  Na1       1.0  1.0000000146270523e-10  0.002500000724537019  0.9992701082400933  1.0000
  Na  Na2       1.0  0.005  0.002500000724537019  0.999507265977792  1.0000
  Na  Na3       1.0  1.0000000146270523e-10  0.005000000678289975  0.999507265977792  1.0000
  Na  Na4       1.0  0.005  0.007500001017434962  0.999507265977792  1.0000
  Na  Na5       1.0  1.0000000146270523e-10  0.007500001017434962  0.9992701082400933  1.0000
  Na  Na6       1.0  0.005  7.000000102670281e-10  0.9992701082400933  1.0000
  Sn  Sn1       1.0  1.0000000146270523e-10  7.000000102670281e-10  0.999507265977792  1.0000
  Sn  Sn2       1.0  0.005  0.005000000678289975  0.9992701082400933  1.0000
  Na  Na7       1.0  0.01  0.0025592042630056305  0.9997450604656847  1.0000
  Na  Na8       1.0  0.004999999625262017  0.00214357360205916  0.0  1.0000
  Na  Na9       1.0  0.01  0.005000001449074038  0.9999703596908395  1.0000
  Na  Na10      1.0  0.004999999625262017  0.00785642775452079  0.0  1.0000
  Na  Na11      1.0  0.01  0.007440797093574319  0.9997450604656847  1.0000
  Na  Na12      1.0  0.005  1.10000004238665e-09  0.9997307988539275  1.0000
  Sn  Sn3       1.0  0.009999998501048067  0.009999999044227761  0.9999447696703175  1.0000
  Sn  Sn4       1.0  0.004999998126310084  0.004999998751329818  0.9997596559518178  1.0000
