data_image0
_chemical_formula_structural       HV2Pt2V2Pt2V2Pt2V2Pt2V2Pt2V2Pt2V2Pt2V2Pt2
_chemical_formula_sum              "H1 V16 Pt16"
_cell_length_a       5.428249835968018
_cell_length_b       8.830039978027344
_cell_length_c       103.73484802246094
_cell_angle_alpha    90.0
_cell_angle_beta     90.0
_cell_angle_gamma    90.0

_space_group_name_H-M_alt    "P 1"
_space_group_IT_number       1

loop_
  _space_group_symop_operation_xyz
  'x, y, z'

loop_
  _atom_site_type_symbol
  _atom_site_label
  _atom_site_symmetry_multiplicity
  _atom_site_fract_x
  _atom_site_fract_y
  _atom_site_fract_z
  _atom_site_occupancy
  H   H1        1.0  0.004999980029300242  0.002499976365819063  5.0128076713128314e-05  1.0000
  V   V1        1.0  8.499999857748038e-09  0.003750000303759555  0.9995516725514745  1.0000
  V   V2        1.0  8.499999857748038e-09  0.0012499999957811172  0.999393128330947  1.0000
  Pt  Pt1       1.0  0.00250000854416536  0.003750000303759555  0.9993244451319155  1.0000
  Pt  Pt2       1.0  0.00250000854416536  0.0012499999957811172  0.9991557804318117  1.0000
  V   V3        1.0  0.009999991627404226  0.003749949255278774  0.0  1.0000
  V   V4        1.0  0.009999968980218932  0.001250003265415217  0.9998627169169817  1.0000
  Pt  Pt3       1.0  0.0024999726861219805  0.003749995662988575  0.9997890112572254  1.0000
  Pt  Pt4       1.0  0.00250000854416536  0.0012499999957811172  0.999620355750506  1.0000
  V   V5        1.0  8.499999857748038e-09  0.008750000708772295  0.9995516725514745  1.0000
  V   V6        1.0  8.499999857748038e-09  0.0062500000843776545  0.999393128330947  1.0000
  Pt  Pt5       1.0  0.00250000854416536  0.008750000708772295  0.9993244451319155  1.0000
  Pt  Pt6       1.0  0.00250000854416536  0.0062500000843776545  0.9991557804318117  1.0000
  V   V7        1.0  0.009999991627404226  0.008749949238403243  0.0  1.0000
  V   V8        1.0  0.009999968980218932  0.006250003459483821  0.9998627169169817  1.0000
  Pt  Pt7       1.0  0.0024999726861219805  0.008749995646113043  0.9997890112572254  1.0000
  Pt  Pt8       1.0  0.00250000854416536  0.0062500000843776545  0.999620355750506  1.0000
  V   V9        1.0  0.005000008509851443  0.003750000303759555  0.9995516725514745  1.0000
  V   V10       1.0  0.005000008509851443  0.0012499999957811172  0.999393128330947  1.0000
  Pt  Pt9       1.0  0.007500008647107112  0.003750000303759555  0.9993244451319155  1.0000
  Pt  Pt10      1.0  0.007500008647107112  0.0012499999957811172  0.9991557804318117  1.0000
  V   V11       1.0  0.004999991696032059  0.003749949255278774  0.0  1.0000
  V   V12       1.0  0.004999968705707595  0.001250003265415217  0.9998627169169817  1.0000
  Pt  Pt11      1.0  0.007499972960633317  0.003749995662988575  0.9997890112572254  1.0000
  Pt  Pt12      1.0  0.007500008647107112  0.0012499999957811172  0.999620355750506  1.0000
  V   V13       1.0  0.005000008509851443  0.008750000708772295  0.9995516725514745  1.0000
  V   V14       1.0  0.005000008509851443  0.0062500000843776545  0.999393128330947  1.0000
  Pt  Pt13      1.0  0.007500008647107112  0.008750000708772295  0.9993244451319155  1.0000
  Pt  Pt14      1.0  0.007500008647107112  0.0062500000843776545  0.9991557804318117  1.0000
  V   V15       1.0  0.004999991696032059  0.008749949238403243  0.0  1.0000
  V   V16       1.0  0.004999968705707595  0.006250003459483821  0.9998627169169817  1.0000
  Pt  Pt15      1.0  0.007499972960633317  0.008749995646113043  0.9997890112572254  1.0000
  Pt  Pt16      1.0  0.007500008647107112  0.0062500000843776545  0.999620355750506  1.0000
