data_image0
_chemical_formula_structural       COV5Pt15V5Pt15
_chemical_formula_sum              "C1 O1 V10 Pt30"
_cell_length_a       5.556559085845947
_cell_length_b       8.785690850289772
_cell_length_c       110.83219909667969
_cell_angle_alpha    75.03678175271119
_cell_angle_beta     90.0
_cell_angle_gamma    71.56505012929577

_space_group_name_H-M_alt    "P 1"
_space_group_IT_number       1

loop_
  _space_group_symop_operation_xyz
  'x, y, z'

loop_
  _atom_site_type_symbol
  _atom_site_label
  _atom_site_symmetry_multiplicity
  _atom_site_fract_x
  _atom_site_fract_y
  _atom_site_fract_z
  _atom_site_occupancy
  C   C1        1.0  0.0064217955114947425  0.007821533369556984  0.9999850435662807  1.0000
  O   O1        1.0  0.0064217955114947425  0.007821533369556984  9.331557041402046e-05  1.0000
  V   V1        1.0  0.00807975515492846  0.0044999998922387015  0.9988720244207658  1.0000
  V   V2        1.0  0.006079754918968376  0.008500000364158872  0.9989948288998594  1.0000
  V   V3        1.0  7.975539473499076e-05  0.0005000000009289767  0.9993632436857635  1.0000
  V   V4        1.0  0.00407975528201954  0.0025000001207669724  0.9991176337808036  1.0000
  V   V5        1.0  0.0020797551621815438  0.006500000360442964  0.9992404388024425  1.0000
  Pt  Pt1       1.0  0.009079755040664326  0.0025000001207669724  0.9991176337808036  1.0000
  Pt  Pt2       1.0  0.007079754920826329  0.006500000360442964  0.9992404388024425  1.0000
  Pt  Pt3       1.0  0.00107975516032359  0.008500000364158872  0.9989948288998594  1.0000
  Pt  Pt4       1.0  0.005079755341938537  0.0005000000009289767  0.9993632436857635  1.0000
  Pt  Pt5       1.0  0.0030797553962836747  0.0044999998922387015  0.9988720244207658  1.0000
  Pt  Pt6       1.0  0.005079754823339428  0.0055000001263408324  0.9990562313427083  1.0000
  Pt  Pt7       1.0  0.0030797548196235197  0.009500000133772647  0.9991790363691005  1.0000
  Pt  Pt8       1.0  0.007079754885116378  0.00150000000278693  0.9989334268564845  1.0000
  Pt  Pt9       1.0  0.0010797550665525952  0.003500000122624926  0.9993018412452913  1.0000
  Pt  Pt10      1.0  0.00907975525055741  0.007500000130056739  0.9988106219779169  1.0000
  Pt  Pt11      1.0  7.975506469464191e-05  0.0055000001263408324  0.9990562313427083  1.0000
  Pt  Pt12      1.0  0.008079755248699456  0.009500000133772647  0.9991790363691005  1.0000
  Pt  Pt13      1.0  0.002079755126471593  0.00150000000278693  0.9989334268564845  1.0000
  Pt  Pt14      1.0  0.006079754825197381  0.003500000122624926  0.9993018412452913  1.0000
  Pt  Pt15      1.0  0.004079754821481474  0.007500000130056739  0.9988106219779169  1.0000
  V   V6        1.0  0.00807975515492846  0.0044999998922387015  0.9994860487145325  1.0000
  V   V7        1.0  0.006079754918968376  0.008500000364158872  0.999608853193626  1.0000
  V   V8        1.0  0.009920244295050168  0.0008250179482016854  0.9999523307611566  1.0000
  V   V9        1.0  0.00407170544692969  0.002513330239865652  0.9997481546636758  1.0000
  V   V10       1.0  0.002098395958924998  0.006464805148695134  0.9998458920250287  1.0000
  Pt  Pt16      1.0  0.009096484011949343  0.0024704869950840634  0.9997283152800436  1.0000
  Pt  Pt17      1.0  0.007061406359317498  0.006539852532452947  0.9998504470238657  1.0000
  Pt  Pt18      1.0  0.00107975516032359  0.008500000364158872  0.999608853193626  1.0000
  Pt  Pt19      1.0  0.004995011971822721  0.0006700311312544807  0.9999664389463173  1.0000
  Pt  Pt20      1.0  0.0030797553962836747  0.0044999998922387015  0.9994860487145325  1.0000
  Pt  Pt21      1.0  0.005079754823339428  0.0055000001263408324  0.9996702556364749  1.0000
  Pt  Pt22      1.0  0.003097321681069415  0.009344257187842124  0.9998087051992142  1.0000
  Pt  Pt23      1.0  0.007079754885116378  0.00150000000278693  0.9995474511502511  1.0000
  Pt  Pt24      1.0  0.0011012183496177563  0.003551232259368871  0.9999188761986554  1.0000
  Pt  Pt25      1.0  0.00907975525055741  0.007500000130056739  0.9994246462716836  1.0000
  Pt  Pt26      1.0  7.975506469464191e-05  0.0055000001263408324  0.9996702556364749  1.0000
  Pt  Pt27      1.0  0.008225001506136599  0.009343805705159617  0.999808755849893  1.0000
  Pt  Pt28      1.0  0.002079755126471593  0.00150000000278693  0.9995474511502511  1.0000
  Pt  Pt29      1.0  0.0060186099511719835  0.003548975542688873  0.9999187158759167  1.0000
  Pt  Pt30      1.0  0.004079754821481474  0.007500000130056739  0.9994246462716836  1.0000
