data_image0
_chemical_formula_structural       COAl6Co12Cr6
_chemical_formula_sum              "C1 O1 Al6 Co12 Cr6"
_cell_length_a       6.997792553577609
_cell_length_b       5.7136735916137695
_cell_length_c       100.76907348632812
_cell_angle_alpha    90.0
_cell_angle_beta     85.65224667102777
_cell_angle_gamma    114.09484209278232

_space_group_name_H-M_alt    "P 1"
_space_group_IT_number       1

loop_
  _space_group_symop_operation_xyz
  'x, y, z'

loop_
  _atom_site_type_symbol
  _atom_site_label
  _atom_site_symmetry_multiplicity
  _atom_site_fract_x
  _atom_site_fract_y
  _atom_site_fract_z
  _atom_site_occupancy
  C   C1        1.0  0.00014637189715143762  0.008856047806993228  5.572866145736248e-05  1.0000
  O   O1        1.0  0.00014637189715143762  0.008856047806993228  0.00017481305812320239  1.0000
  Al  Al1       1.0  0.004020294751837796  0.006979166577096755  0.9995423413273626  1.0000
  Al  Al2       1.0  0.005894486917046265  0.002916293558895222  0.9997979321216568  1.0000
  Al  Al3       1.0  0.0023536281397883016  0.0011458333201754295  0.9992878891377924  1.0000
  Al  Al4       1.0  0.009853627601419033  0.009895833001887374  0.9996695673210386  1.0000
  Al  Al5       1.0  0.0015447650336949876  0.005743246213704946  0.9999385659408349  1.0000
  Al  Al6       1.0  0.008186961574553526  0.004062500037558042  0.9994151151283878  1.0000
  Co  Co1       1.0  0.002793764620704899  0.008892218376865437  0.9997282439490411  1.0000
  Co  Co2       1.0  0.004650776076622437  0.004844589349175065  0.9999753254109379  1.0000
  Co  Co3       1.0  0.0011036281076031822  0.003020833378858621  0.9994787283316799  1.0000
  Co  Co4       1.0  0.0027972482209844994  0.0038432079427674236  0.9997284279016505  1.0000
  Co  Co5       1.0  0.0046534816747902065  0.009745752989717643  0.9999755016294108  1.0000
  Co  Co6       1.0  0.0011036281076031822  0.00802083362009701  0.9994787283316799  1.0000
  Co  Co7       1.0  0.00883012559190658  0.0017577148548470452  0.999855498915267  1.0000
  Co  Co8       1.0  0.00527029456457892  0.00010416652910701167  0.9993515021346304  1.0000
  Co  Co9       1.0  0.006936961176628414  0.005937499913371237  0.9996059543242006  1.0000
  Co  Co10      1.0  0.008827793633715046  0.007012422199872104  0.9998555366263074  1.0000
  Co  Co11      1.0  0.00527029456457892  0.005104166607346489  0.9993515021346304  1.0000
  Co  Co12      1.0  0.006936961176628414  0.0009374998351317589  0.9996059543242006  1.0000
  Cr  Cr1       1.0  0.009853627601419033  0.004895833050990795  0.9996695673210386  1.0000
  Cr  Cr2       1.0  0.0019168468112659733  0.0009256211048782853  0.9999109633288199  1.0000
  Cr  Cr3       1.0  0.008186961574553526  0.00906249998845462  0.9994151151283878  1.0000
  Cr  Cr4       1.0  0.004020294751837796  0.0019791666745904786  0.9995423413273626  1.0000
  Cr  Cr5       1.0  0.005707883447004464  0.007825625630881046  0.9998149499947512  1.0000
  Cr  Cr6       1.0  0.0023536281397883016  0.006145833271072008  0.9992878891377924  1.0000
