data_image0
_chemical_formula_structural       COAl12Ca6Si12
_chemical_formula_sum              "C1 O1 Al12 Ca6 Si12"
_cell_length_a       10.184984987905624
_cell_length_b       8.289684485592396
_cell_length_c       98.35550689697266
_cell_angle_alpha    91.81443058047147
_cell_angle_beta     94.95607680333292
_cell_angle_gamma    72.81183922521674

_space_group_name_H-M_alt    "P 1"
_space_group_IT_number       1

loop_
  _space_group_symop_operation_xyz
  'x, y, z'

loop_
  _atom_site_type_symbol
  _atom_site_label
  _atom_site_symmetry_multiplicity
  _atom_site_fract_x
  _atom_site_fract_y
  _atom_site_fract_z
  _atom_site_occupancy
  C   C1        1.0  0.003069628062831936  0.008615088660967201  0.00015620496510706055  1.0000
  O   O1        1.0  0.003069628062831936  0.008615088660967201  0.0002782115989731753  1.0000
  Al  Al1       1.0  0.0006473687376837724  0.004082579758436642  0.9994835987566912  1.0000
  Al  Al2       1.0  0.007314035410752337  0.00789210306979517  0.999620882505744  1.0000
  Al  Al3       1.0  0.003980702026203819  0.000273055777495644  0.9993463149933879  1.0000
  Al  Al4       1.0  0.007558926450241948  0.004537376897515705  0.9994735130137312  1.0000
  Al  Al5       1.0  0.0042255930656934304  0.008346900463420006  0.999610796775068  1.0000
  Al  Al6       1.0  0.0008922595851164411  0.000727853093294362  0.999336228958639  1.0000
  Al  Al7       1.0  0.0004722458396778704  0.005408140854153813  0.999877336120294  1.0000
  Al  Al8       1.0  0.006451307941582239  0.008978761595614  0.9999530416629651  1.0000
  Al  Al9       1.0  0.0039794490467092315  0.0016756417784826155  0.9997656878293729  1.0000
  Al  Al10      1.0  0.007615676203917396  0.005822313669423939  0.9998812032536522  1.0000
  Al  Al11      1.0  0.0037945247146863514  0.00031660328057497926  3.479121535276554e-05  1.0000
  Al  Al12      1.0  0.0008426168025794753  0.002176988693081008  0.9997516631019626  1.0000
  Ca  Ca1       1.0  0.0007698141614001068  0.00811950213597623  0.9996158396467646  1.0000
  Ca  Ca2       1.0  0.0074364809304971425  0.0005004543297464734  0.9993412721222913  1.0000
  Ca  Ca3       1.0  0.0041031475459486245  0.004309978120457825  0.999478555884228  1.0000
  Ca  Ca4       1.0  0.0007538013657829876  0.00972694443066462  1.5383583051939864e-05  1.0000
  Ca  Ca5       1.0  0.007424621030167628  0.0019445111965284347  0.9997645480024994  1.0000
  Ca  Ca6       1.0  0.0042283102873196445  0.005759438717068621  0.9998881438043064  1.0000
  Si  Si1       1.0  0.009427084306421843  0.0018163368164091404  0.999533856422208  1.0000
  Si  Si2       1.0  0.006093750921873325  0.00419728891263444  0.9992592886112741  1.0000
  Si  Si3       1.0  0.0027604175373248073  0.008006812928152841  0.9993965726768169  1.0000
  Si  Si4       1.0  0.00877921093912096  0.006803620034611532  0.9994232553371303  1.0000
  Si  Si5       1.0  0.005445877554572443  0.0006131435375698601  0.999560539092239  1.0000
  Si  Si6       1.0  0.0021125441700239242  0.002994095858602209  0.9992859712819049  1.0000
  Si  Si7       1.0  0.009527754409996154  0.0033185294974996493  0.9999679606543174  1.0000
  Si  Si8       1.0  0.006093750921873325  0.005625860831927543  0.9996711401847447  1.0000
  Si  Si9       1.0  0.002740334911047828  0.009410227238320187  0.999808315017466  1.0000
  Si  Si10      1.0  0.008755367453790791  0.008268809475496033  0.9998475409265829  1.0000
  Si  Si11      1.0  0.005349118882694446  0.002039443965941083  0.9999883440098432  1.0000
  Si  Si12      1.0  0.0021125441700239242  0.004422667328281213  0.9996978231571817  1.0000
