data_image0
_chemical_formula_structural       HSn16Pd32
_chemical_formula_sum              "H1 Sn16 Pd32"
_cell_length_a       7.2667315455014405
_cell_length_b       12.120055068807847
_cell_length_c       103.13230895996094
_cell_angle_alpha    76.91585956357652
_cell_angle_beta     79.99646607746863
_cell_angle_gamma    63.81476576460503

_space_group_name_H-M_alt    "P 1"
_space_group_IT_number       1

loop_
  _space_group_symop_operation_xyz
  'x, y, z'

loop_
  _atom_site_type_symbol
  _atom_site_label
  _atom_site_symmetry_multiplicity
  _atom_site_fract_x
  _atom_site_fract_y
  _atom_site_fract_z
  _atom_site_occupancy
  H   H1        1.0  0.005784967908005648  0.007137128177659039  0.9998989802378779  1.0000
  Sn  Sn1       1.0  0.004767826729873896  0.00797316806776408  0.9995157417080514  1.0000
  Sn  Sn2       1.0  0.002455675064646744  0.005474788615375827  0.9997851213339075  1.0000
  Sn  Sn3       1.0  0.007288266117330228  0.0004434327960718188  0.9992488191719426  1.0000
  Sn  Sn4       1.0  0.00978826559315364  0.0029434326205630035  0.998981102118394  1.0000
  Sn  Sn5       1.0  0.00021173403203139174  0.007056567198715048  0.99937194049152  1.0000
  Sn  Sn6       1.0  0.007626000178013399  0.004548746414698973  0.9996526179540651  1.0000
  Sn  Sn7       1.0  0.0027117341185102922  0.009556566892877904  0.9991042237229363  1.0000
  Sn  Sn8       1.0  0.005211733985577003  0.002056567115304918  0.9988365068389541  1.0000
  Sn  Sn9       1.0  0.006975459691182459  0.00816991657741412  0.999787559104208  1.0000
  Sn  Sn10      1.0  0.004656830360587898  0.005574868607358668  0.9989951771551997  1.0000
  Sn  Sn11      1.0  0.009710923303348702  0.000540109307209807  0.9995404501084881  1.0000
  Sn  Sn12      1.0  0.0021568302540704363  0.0030748685656536035  0.9992628942222466  1.0000
  Sn  Sn13      1.0  0.007843169911717324  0.006925131601166656  0.9990901486607764  1.0000
  Sn  Sn14      1.0  0.005343170065481946  0.004425131559461591  0.9993578654356658  1.0000
  Sn  Sn15      1.0  0.0003431698316156901  0.009425131295329512  0.9988224319751436  1.0000
  Sn  Sn16      1.0  0.0029549488114808562  0.0018993607417055632  0.9996396522850909  1.0000
  Pd  Pd1       1.0  0.0017151218257071272  0.004290111064035669  0.9994758655875212  1.0000
  Pd  Pd2       1.0  0.009240135961803904  0.0019169375151139153  0.9997300301435353  1.0000
  Pd  Pd3       1.0  0.004215121912186027  0.006790110758198526  0.9992081488189375  1.0000
  Pd  Pd4       1.0  0.006715121518177882  0.009290111147445799  0.9989404320377425  1.0000
  Pd  Pd5       1.0  0.0032848781570761513  0.0007098889759316844  0.9994126108524402  1.0000
  Pd  Pd6       1.0  0.0008051242954859206  0.008114845734187975  0.9996766761821773  1.0000
  Pd  Pd7       1.0  0.005784878233563172  0.003209889061079525  0.9991448940735769  1.0000
  Pd  Pd8       1.0  0.008284877559234382  0.00570988910278459  0.9988771770160871  1.0000
  Pd  Pd9       1.0  0.007550577296370668  0.005954656129172085  0.9993863996021844  1.0000
  Pd  Pd10      1.0  0.005093286903869766  0.0034713050969505965  0.9996458616736855  1.0000
  Pd  Pd11      1.0  5.0577216269035124e-05  0.008454655823334942  0.9991186829165517  1.0000
  Pd  Pd12      1.0  0.002550577203457508  0.0009546558719908516  0.9988509657467506  1.0000
  Pd  Pd13      1.0  0.007449422822169928  0.009045344121058304  0.999502077142611  1.0000
  Pd  Pd14      1.0  0.0050446843402180835  0.006651888356408504  0.9997612866237107  1.0000
  Pd  Pd15      1.0  0.009949423329922569  0.0015453441697142133  0.9992343599664384  1.0000
  Pd  Pd16      1.0  0.002449423129699175  0.004045344037648174  0.9989666432776527  1.0000
  Pd  Pd17      1.0  0.009129797735456599  0.0063636472751979105  0.9996331136284905  1.0000
  Pd  Pd18      1.0  0.006533128627938741  0.0038567363566828906  0.9988281256309127  1.0000
  Pd  Pd19      1.0  0.0015331281538289634  0.00885673644009302  0.9993635592898501  1.0000
  Pd  Pd20      1.0  0.0040331282611391975  0.0013567363149778258  0.9990958424121735  1.0000
  Pd  Pd21      1.0  0.005966871884610003  0.008643263504300225  0.999257200191369  1.0000
  Pd  Pd22      1.0  0.0034538560322575585  0.006173390158912534  0.999517023899454  1.0000
  Pd  Pd23      1.0  0.008466871231112547  0.0011432637267272392  0.9989894836027301  1.0000
  Pd  Pd24      1.0  0.001000330922615995  0.003808105470574596  0.9997727110493507  1.0000
  Pd  Pd25      1.0  0.0031758975176364797  0.009540826011184342  0.9996988123305213  1.0000
  Pd  Pd26      1.0  0.0008864659030204386  0.007003398801536561  0.9988973744239615  1.0000
  Pd  Pd27      1.0  0.005886465616322528  0.0020033990656686397  0.9994328084687987  1.0000
  Pd  Pd28      1.0  0.008386465983122073  0.0045033991073737045  0.9991650911095943  1.0000
  Pd  Pd29      1.0  0.0016135344429477705  0.005496601059446555  0.9991879511922994  1.0000
  Pd  Pd30      1.0  0.009113534763292927  0.0029966010177414903  0.9994556684621814  1.0000
  Pd  Pd31      1.0  0.0041135345294266695  0.007996600753609412  0.9989202347126874  1.0000
  Pd  Pd32      1.0  0.006670564022515533  0.0005421909112657903  0.9997219540314373  1.0000
