data_image0
_chemical_formula_structural       HPb16Pd8
_chemical_formula_sum              "H1 Pb16 Pd8"
_cell_length_a       5.8402863911686955
_cell_length_b       9.275385122862751
_cell_length_c       103.92019653320312
_cell_angle_alpha    95.38865248360591
_cell_angle_beta     85.72327910334316
_cell_angle_gamma    82.16283436599458

_space_group_name_H-M_alt    "P 1"
_space_group_IT_number       1

loop_
  _space_group_symop_operation_xyz
  'x, y, z'

loop_
  _atom_site_type_symbol
  _atom_site_label
  _atom_site_symmetry_multiplicity
  _atom_site_fract_x
  _atom_site_fract_y
  _atom_site_fract_z
  _atom_site_occupancy
  H   H1        1.0  0.003048459207747464  0.00814726120729783  0.00015058974367683652  1.0000
  Pb  Pb1       1.0  0.005067758555221886  0.0016836061314705558  0.9999375506664296  1.0000
  Pb  Pb2       1.0  0.0017344250778757874  0.006683605866473655  0.9996655457001659  1.0000
  Pb  Pb3       1.0  0.008401092118826328  0.0016836061314705558  0.9993935404924087  1.0000
  Pb  Pb4       1.0  0.0050677586414802295  0.006683605866473655  0.9991215352393641  1.0000
  Pb  Pb5       1.0  0.007244808510545853  0.0041836059480111635  0.9997071935385561  1.0000
  Pb  Pb6       1.0  0.0039114751032066734  0.00918360537724861  0.999435188569436  1.0000
  Pb  Pb7       1.0  0.0005781417031579532  0.0041836059480111635  0.9991631833517509  1.0000
  Pb  Pb8       1.0  0.0005781418594232155  0.00918360537724861  0.9999791990288974  1.0000
  Pb  Pb9       1.0  0.006088524941715719  0.008316393644301298  0.9997543709959245  1.0000
  Pb  Pb10      1.0  0.0027551916816808387  0.003316393603532544  0.9994823660593076  1.0000
  Pb  Pb11      1.0  0.009421859144962129  0.008316393644301298  0.9992103605324419  1.0000
  Pb  Pb12      1.0  0.009421858489068739  0.003316393603532544  2.6375959331890603e-05  1.0000
  Pb  Pb13      1.0  0.0005781416580694466  0.0008163937360309942  0.9997127226134784  1.0000
  Pb  Pb14      1.0  0.007244808666674395  0.005816393318151267  0.9994407176582357  1.0000
  Pb  Pb15      1.0  0.00391147498180815  0.0008163937360309942  0.9991687127272436  1.0000
  Pb  Pb16      1.0  0.003911475103069953  0.005816393318151267  0.9999847281190375  1.0000
  Pd  Pd1       1.0  0.008911475226232528  0.006249999592312461  0.9999139619222805  1.0000
  Pd  Pd2       1.0  0.005578141553034104  0.0012499999592312462  0.9996419569908125  1.0000
  Pd  Pd3       1.0  0.0022448084188446287  0.006249999592312461  0.9993699517354754  1.0000
  Pd  Pd4       1.0  0.008911475116638545  0.0012499999592312462  0.9990979468167915  1.0000
  Pd  Pd5       1.0  0.005578142013910422  0.008749999510774953  4.996466868530591e-05  1.0000
  Pd  Pd6       1.0  0.0022448083873832774  0.0037499996738499693  0.999777959735313  1.0000
  Pd  Pd7       1.0  0.008911475577514863  0.008749999510774953  0.9995059542078835  1.0000
  Pd  Pd8       1.0  0.005578141950987719  0.0037499996738499693  0.9992339492745111  1.0000
