data_image0
_chemical_formula_structural       HPt40Ti24
_chemical_formula_sum              "H1 Pt40 Ti24"
_cell_length_a       13.85630760875471
_cell_length_b       7.4562430584331985
_cell_length_c       100.8483657836914
_cell_angle_alpha    94.9973091375528
_cell_angle_beta     97.35777131021632
_cell_angle_gamma    74.63792027704919

_space_group_name_H-M_alt    "P 1"
_space_group_IT_number       1

loop_
  _space_group_symop_operation_xyz
  'x, y, z'

loop_
  _atom_site_type_symbol
  _atom_site_label
  _atom_site_symmetry_multiplicity
  _atom_site_fract_x
  _atom_site_fract_y
  _atom_site_fract_z
  _atom_site_occupancy
  H   H1        1.0  0.008127131930983744  0.0019059922656540938  0.00017899774416496123  1.0000
  Pt  Pt1       1.0  0.004482256258947971  0.006590546918712466  4.4256956567184333e-05  1.0000
  Pt  Pt2       1.0  0.009470108428329564  0.004882226040968636  0.9997880099191367  1.0000
  Pt  Pt3       1.0  0.002963723576873238  0.0023674811400006828  0.9998578596106749  1.0000
  Pt  Pt4       1.0  0.008048384470774881  0.003951542319754748  9.36690680855169e-05  1.0000
  Pt  Pt5       1.0  0.0005780516534443324  0.008271989408958822  2.6303484691286542e-05  1.0000
  Pt  Pt6       1.0  0.005509343933424872  0.006862603113720641  0.999773006940588  1.0000
  Pt  Pt7       1.0  0.001970108046858249  0.009297209575403522  0.9996985349473918  1.0000
  Pt  Pt8       1.0  0.007029394366445977  0.0009863227461753509  0.9999746119448302  1.0000
  Pt  Pt9       1.0  2.4221749942314806e-05  0.0009299073894765156  0.9997787495374953  1.0000
  Pt  Pt10      1.0  0.004989158428142868  0.002754792442601226  2.1085703204843743e-05  1.0000
  Pt  Pt11      1.0  0.0024552301674050517  0.0049815878849138176  0.9996548135108245  1.0000
  Pt  Pt12      1.0  0.0073831871328809825  0.006934364904450589  0.999923855882541  1.0000
  Pt  Pt13      1.0  0.009975777828090105  0.0023175879755765474  3.13014676986123e-05  1.0000
  Pt  Pt14      1.0  0.004955229920570671  0.000814921529462802  0.9997822668770946  1.0000
  Pt  Pt15      1.0  0.0075242215660436896  0.005096574052418368  0.9996512960355994  1.0000
  Pt  Pt16      1.0  0.0024625866734243637  0.006846816259049205  0.9999138010474999  1.0000
  Pt  Pt17      1.0  0.008708445970592997  0.008832953261084266  0.9998468800095559  1.0000
  Pt  Pt18      1.0  0.0037895239849236794  0.00040254699853437985  7.991424691936083e-05  1.0000
  Pt  Pt19      1.0  0.001297235702446127  0.0044638408695011535  0.9999767383298248  1.0000
  Pt  Pt20      1.0  0.00623972574330718  0.002955747790940585  0.9997167816041052  1.0000
  Pt  Pt21      1.0  0.004470108080517483  0.00321555919185188  0.9995331026131431  1.0000
  Pt  Pt22      1.0  0.009470108428329564  0.001548892553833783  0.9992781954862381  1.0000
  Pt  Pt23      1.0  0.0030093438997656386  0.009114285707643747  0.9993526672746127  1.0000
  Pt  Pt24      1.0  0.008009343686590491  0.0007809523619286623  0.9996075745990322  1.0000
  Pt  Pt25      1.0  0.0005093438661064047  0.005195936131317525  0.9995180996386714  1.0000
  Pt  Pt26      1.0  0.005509343933424872  0.0035292696265857874  0.9992631925076892  1.0000
  Pt  Pt27      1.0  0.001970108046858249  0.005963876589795365  0.9991887208132393  1.0000
  Pt  Pt28      1.0  0.006970108114176717  0.0076305435721984805  0.9994436278196397  1.0000
  Pt  Pt29      1.0  2.4221749942314806e-05  0.007596573924910363  0.9992689353707065  1.0000
  Pt  Pt30      1.0  0.00502422181287807  0.009263240909396078  0.9995238426725593  1.0000
  Pt  Pt31      1.0  0.0024552301674050517  0.0016482546485423115  0.9991449990795409  1.0000
  Pt  Pt32      1.0  0.0074552302347235195  0.0033149213801820796  0.9993999063798424  1.0000
  Pt  Pt33      1.0  0.00995522998788914  0.009148254483082232  0.9995273597130725  1.0000
  Pt  Pt34      1.0  0.004955229920570671  0.007481588503732508  0.9992724527131321  1.0000
  Pt  Pt35      1.0  0.0075242215660436896  0.001763240565283515  0.9991414818982168  1.0000
  Pt  Pt36      1.0  0.002524221779218836  0.0034299074382555883  0.9993963890365061  1.0000
  Pt  Pt37      1.0  0.008739726057460028  0.005455747140133167  0.9993344208081067  1.0000
  Pt  Pt38      1.0  0.003739725990141561  0.0071224141463916  0.9995893279423189  1.0000
  Pt  Pt39      1.0  0.0012397259564823268  0.0012890810513961318  0.9994618743086882  1.0000
  Pt  Pt40      1.0  0.00623972574330718  0.009622414263683595  0.9992069671413963  1.0000
  Ti  Ti1       1.0  0.001762862955819626  0.0005254355559299599  0.9999652119617081  1.0000
  Ti  Ti2       1.0  0.006765576097621328  0.008967161054035265  0.9997106200624495  1.0000
  Ti  Ti3       1.0  0.0007138759527851967  0.0072143280870695095  0.9997642370488778  1.0000
  Ti  Ti4       1.0  0.005723690982527932  0.009019255722636711  3.2472450080513385e-06  1.0000
  Ti  Ti5       1.0  0.003194225655685463  0.0043484915677784635  8.421092274684522e-05  1.0000
  Ti  Ti6       1.0  0.008191251088225465  0.002767890252752547  0.9998518660283234  1.0000
  Ti  Ti7       1.0  0.00426557578346848  0.004530500823199519  0.9997967793372614  1.0000
  Ti  Ti8       1.0  0.009335058606919177  0.005996233485855613  3.21867252930268e-05  1.0000
  Ti  Ti9       1.0  0.0012397259564823268  0.0029557476695818846  0.9997167818198461  1.0000
  Ti  Ti10      1.0  0.006219813501635965  0.0046793934291545995  0.9999794180938316  1.0000
  Ti  Ti11      1.0  0.00887601566064513  0.0003775855972598055  9.712339538710775e-05  1.0000
  Ti  Ti12      1.0  0.0037399001766759716  0.008736964473717978  0.9998473069184762  1.0000
  Ti  Ti13      1.0  0.0017655758900560535  0.0073004941382753315  0.9994557127584943  1.0000
  Ti  Ti14      1.0  0.006765576097621328  0.005633827065373718  0.9992008056263206  1.0000
  Ti  Ti15      1.0  0.0007138759527851967  0.0038809945999346567  0.9992544229114952  1.0000
  Ti  Ti16      1.0  0.0057138759499802605  0.005547661114132667  0.9995093299136464  1.0000
  Ti  Ti17      1.0  0.003213875916321027  0.0011110010007739067  0.9995954894896666  1.0000
  Ti  Ti18      1.0  0.00821387570314588  0.009444334338443045  0.9993405823231823  1.0000
  Ti  Ti19      1.0  0.00426557578346848  0.0011971675868280131  0.9992869652014938  1.0000
  Ti  Ti20      1.0  0.009265575850786948  0.002863834318467781  0.9995418725017955  1.0000
  Ti  Ti21      1.0  0.0012397259564823268  0.009622414643851591  0.9992069673603674  1.0000
  Ti  Ti22      1.0  0.00623972574330718  0.001289081298136506  0.9994618743892708  1.0000
  Ti  Ti23      1.0  0.008739726057460028  0.0071224146359906365  0.9995893280294011  1.0000
  Ti  Ti24      1.0  0.003739725990141561  0.005455747653587521  0.9993344207274846  1.0000
