data_image0
_chemical_formula_structural       HFe3Sb3V3Fe3Sb3V3Fe3Sb3V3Fe3Sb3V3
_chemical_formula_sum              "H1 Fe12 Sb12 V12"
_cell_length_a       8.235006049573537
_cell_length_b       8.235006332397461
_cell_length_c       100.2573471069336
_cell_angle_alpha    90.0
_cell_angle_beta     90.0
_cell_angle_gamma    120.00000113609391

_space_group_name_H-M_alt    "P 1"
_space_group_IT_number       1

loop_
  _space_group_symop_operation_xyz
  'x, y, z'

loop_
  _atom_site_type_symbol
  _atom_site_label
  _atom_site_symmetry_multiplicity
  _atom_site_fract_x
  _atom_site_fract_y
  _atom_site_fract_z
  _atom_site_occupancy
  H   H1        1.0  0.0008333333420392464  0.0008333333414560606  0.0001228889338205946  1.0000
  Fe  Fe1       1.0  0.002500000156706434  0.004166666714861718  0.9995808376443229  1.0000
  Fe  Fe2       1.0  0.004166666579607538  0.0024999999885134865  0.9999161672316064  1.0000
  Fe  Fe3       1.0  0.0008333333420392464  0.0008333333414560606  0.9992455080570395  1.0000
  Sb  Sb1       1.0  0.002500000156706434  0.004166666714861718  0.9998323350577292  1.0000
  Sb  Sb2       1.0  0.004166666579607538  0.0024999999885134865  0.9991616755859041  1.0000
  Sb  Sb3       1.0  0.0008333333420392464  0.0008333333414560606  0.9994970051731875  1.0000
  V   V1        1.0  0.0008333333420392464  0.0008333333414560606  0.0  1.0000
  V   V2        1.0  0.002500000156706434  0.004166666714861718  0.9993293405281749  1.0000
  V   V3        1.0  0.004166666579607538  0.0024999999885134865  0.9996646701154583  1.0000
  Fe  Fe4       1.0  0.002500000156706434  0.009166666081540237  0.9995808376443229  1.0000
  Fe  Fe5       1.0  0.004166666579607538  0.0074999998358377725  0.9999161672316064  1.0000
  Fe  Fe6       1.0  0.0008333333420392464  0.005833333217053626  0.9992455080570395  1.0000
  Sb  Sb4       1.0  0.002500000156706434  0.009166666081540237  0.9998323350577292  1.0000
  Sb  Sb5       1.0  0.004166666579607538  0.0074999998358377725  0.9991616755859041  1.0000
  Sb  Sb6       1.0  0.0008333333420392464  0.005833333217053626  0.9994970051731875  1.0000
  V   V4        1.0  0.0008333333420392464  0.005833333217053626  0.0  1.0000
  V   V5        1.0  0.002500000156706434  0.009166666081540237  0.9993293405281749  1.0000
  V   V6        1.0  0.004166666579607538  0.0074999998358377725  0.9996646701154583  1.0000
  Fe  Fe7       1.0  0.007500000208941912  0.004166666718360833  0.9995808376443229  1.0000
  Fe  Fe8       1.0  0.009166667154197795  0.002500000394556393  0.9999161672316064  1.0000
  Fe  Fe9       1.0  0.00583333326368603  0.0008333334493005109  0.9992455080570395  1.0000
  Sb  Sb7       1.0  0.007500000208941912  0.004166666718360833  0.9998323350577292  1.0000
  Sb  Sb8       1.0  0.009166667154197795  0.002500000394556393  0.9991616755859041  1.0000
  Sb  Sb9       1.0  0.00583333326368603  0.0008333334493005109  0.9994970051731875  1.0000
  V   V7        1.0  0.00583333326368603  0.0008333334493005109  0.0  1.0000
  V   V8        1.0  0.007500000208941912  0.004166666718360833  0.9993293405281749  1.0000
  V   V9        1.0  0.009166667154197795  0.002500000394556393  0.9996646701154583  1.0000
  Fe  Fe10      1.0  0.007500000208941912  0.00916666665050496  0.9995808376443229  1.0000
  Fe  Fe11      1.0  0.009166667154197795  0.007500000213607398  0.9999161672316064  1.0000
  Fe  Fe12      1.0  0.00583333326368603  0.005833333268351516  0.9992455080570395  1.0000
  Sb  Sb10      1.0  0.007500000208941912  0.00916666665050496  0.9998323350577292  1.0000
  Sb  Sb11      1.0  0.009166667154197795  0.007500000213607398  0.9991616755859041  1.0000
  Sb  Sb12      1.0  0.00583333326368603  0.005833333268351516  0.9994970051731875  1.0000
  V   V10       1.0  0.00583333326368603  0.005833333268351516  0.0  1.0000
  V   V11       1.0  0.007500000208941912  0.00916666665050496  0.9993293405281749  1.0000
  V   V12       1.0  0.009166667154197795  0.007500000213607398  0.9996646701154583  1.0000
