data_image0
_chemical_formula_structural       V2Rh2V2Rh2V2Rh2V2Rh2V2Rh2V2Rh2CO
_chemical_formula_sum              "V12 Rh12 C1 O1"
_cell_length_a       5.488143444061279
_cell_length_b       7.829173270894505
_cell_length_c       100.1847915649414
_cell_angle_alpha    110.5174822723394
_cell_angle_beta     90.0
_cell_angle_gamma    90.0

_space_group_name_H-M_alt    "P 1"
_space_group_IT_number       1

loop_
  _space_group_symop_operation_xyz
  'x, y, z'

loop_
  _atom_site_type_symbol
  _atom_site_label
  _atom_site_symmetry_multiplicity
  _atom_site_fract_x
  _atom_site_fract_y
  _atom_site_fract_z
  _atom_site_occupancy
  V   V1        1.0  0.00250001240825925  0.0025367775212854107  0.9994709135232649  1.0000
  V   V2        1.0  0.00250001240825925  0.007536777389192501  0.9993339629113501  1.0000
  Rh  Rh1       1.0  1.2450000421505704e-08  3.6777349183591035e-05  0.9995393888226993  1.0000
  Rh  Rh2       1.0  1.2450000421505704e-08  0.005036777328226542  0.9994024382138286  1.0000
  V   V3        1.0  0.00250001240825925  0.0025367775212854107  0.9997448143471932  1.0000
  V   V4        1.0  0.00250001240825925  0.007536777389192501  0.9996078640327519  1.0000
  Rh  Rh3       1.0  0.00999998786325627  0.009963222529519554  0.9998097705537972  1.0000
  Rh  Rh4       1.0  1.2450000421505704e-08  0.005036777328226542  0.999676339037757  1.0000
  V   V5        1.0  0.0025000032446104606  0.0023572464914334863  0.9999972380419954  1.0000
  V   V6        1.0  0.002500010711287252  0.007532927896975529  0.9998869178580695  1.0000
  Rh  Rh5       1.0  3.6750000635856736e-08  7.498025393898618e-05  7.538510364349419e-05  1.0000
  Rh  Rh6       1.0  5.355000011273091e-08  0.0049361062734849  0.9999472721573878  1.0000
  V   V7        1.0  0.007500012788380978  0.0025367775212854107  0.9994709135232649  1.0000
  V   V8        1.0  0.007500012788380978  0.007536777389192501  0.9993339629113501  1.0000
  Rh  Rh7       1.0  0.005000012598320114  3.6777349183591035e-05  0.9995393888226993  1.0000
  Rh  Rh8       1.0  0.005000012598320114  0.005036777328226542  0.9994024382138286  1.0000
  V   V9        1.0  0.007500012788380978  0.0025367775212854107  0.9997448143471932  1.0000
  V   V10       1.0  0.007500012788380978  0.007536777389192501  0.9996078640327519  1.0000
  Rh  Rh9       1.0  0.004999987483134542  0.009963222529519554  0.9998097705537972  1.0000
  Rh  Rh10      1.0  0.005000012598320114  0.005036777328226542  0.999676339037757  1.0000
  V   V11       1.0  0.007500003285337789  0.0023572464914334863  0.9999972380419954  1.0000
  V   V12       1.0  0.0075000107520145805  0.007532927896975529  0.9998869178580695  1.0000
  Rh  Rh11      1.0  0.005000036695322487  7.498025393898618e-05  7.538510364349419e-05  1.0000
  Rh  Rh12      1.0  0.005000053665042468  0.0049361062734849  0.9999472721573878  1.0000
  C   C1        1.0  0.002500010711287252  0.007532927896975529  8.654936120234732e-05  1.0000
  O   O1        1.0  0.002500010711287252  0.007532927896975529  0.00020632766813500906  1.0000
