data_image0
_chemical_formula_structural       Ga3Ag6Ga3Ag6Ga3Ag6H
_chemical_formula_sum              "Ga9 Ag18 H1"
_cell_length_a       7.962718486785889
_cell_length_b       8.494677891364388
_cell_length_c       102.54711151123047
_cell_angle_alpha    69.6156767532569
_cell_angle_beta     90.0
_cell_angle_gamma    62.05079141346804

_space_group_name_H-M_alt    "P 1"
_space_group_IT_number       1

loop_
  _space_group_symop_operation_xyz
  'x, y, z'

loop_
  _atom_site_type_symbol
  _atom_site_label
  _atom_site_symmetry_multiplicity
  _atom_site_fract_x
  _atom_site_fract_y
  _atom_site_fract_z
  _atom_site_occupancy
  Ga  Ga1       1.0  0.003355912012782387  0.0033841182554574007  0.9991930188986629  1.0000
  Ga  Ga2       1.0  0.00668924578076851  0.006717451804877476  0.9990968410269876  1.0000
  Ga  Ga3       1.0  2.257890092090826e-05  5.0784950823087365e-05  0.9991449299883642  1.0000
  Ag  Ag1       1.0  2.257883222945288e-05  0.006995467926331362  0.9990888193278518  1.0000
  Ag  Ag2       1.0  0.006967261938302233  0.0031061018638950865  0.9992010406055922  1.0000
  Ag  Ag3       1.0  0.0030778957483183246  5.0784950823087365e-05  0.9992891967632751  1.0000
  Ag  Ag4       1.0  0.006412088088580463  5.0784950823087365e-05  0.9991449299883642  1.0000
  Ag  Ag5       1.0  0.0036330696561161866  0.0064402940880050425  0.9992491044425574  1.0000
  Ag  Ag6       1.0  2.2578891113740865e-05  0.0036612757022214063  0.9990407552002657  1.0000
  Ga  Ga4       1.0  0.003355912012782387  0.0033841182554574007  0.9994815524484846  1.0000
  Ga  Ga5       1.0  0.00668924578076851  0.006717451804877476  0.9993853745768094  1.0000
  Ga  Ga6       1.0  2.257890092090826e-05  5.0784950823087365e-05  0.9994334632475652  1.0000
  Ag  Ag7       1.0  2.257883222945288e-05  0.006995467926331362  0.9993773528776736  1.0000
  Ag  Ag8       1.0  0.006967261938302233  0.0031061018638950865  0.999489574155414  1.0000
  Ag  Ag9       1.0  0.0030658339461228095  0.00011207294966311214  0.9995670776709262  1.0000
  Ag  Ag10      1.0  0.006412088088580463  5.0784950823087365e-05  0.9994334632475652  1.0000
  Ag  Ag11      1.0  0.0036330696561161866  0.0064402940880050425  0.9995376385736209  1.0000
  Ag  Ag12      1.0  2.2578891113740865e-05  0.0036612757022214063  0.9993292884594668  1.0000
  Ga  Ga7       1.0  0.0033934919076047173  0.0033345971166422405  0.9997775870802853  1.0000
  Ga  Ga8       1.0  0.006750642651788701  0.0066966475136022285  0.9996992832412923  1.0000
  Ga  Ga9       1.0  0.00997742126017137  0.009949214861789192  0.9997386621276506  1.0000
  Ag  Ag13      1.0  2.4652101556885552e-05  0.006937995875854883  0.999679943153308  1.0000
  Ag  Ag14      1.0  0.0069053882563117714  0.0031551630080588256  0.9997714551397937  1.0000
  Ag  Ag15      1.0  0.00304063045677335  0.00014192484345920128  0.9998420108216852  1.0000
  Ag  Ag16      1.0  0.006449757790646024  6.405005164797257e-05  0.9997250102491947  1.0000
  Ag  Ag17      1.0  0.0035805504681023326  0.006580907133006057  0.9998101187197859  1.0000
  Ag  Ag18      1.0  0.009923212471937322  0.003784351147265016  0.9996254126889935  1.0000
  H   H1        1.0  0.00881727666913117  0.00898375388567179  0.9998608125789017  1.0000
