data_image0
_chemical_formula_structural       COCu3Pd3Cu3Pd3Cu3Pd3Cu3Pd3Cu3Pd3Cu3Pd3Cu3Pd3Cu3Pd3
_chemical_formula_sum              "C1 O1 Cu24 Pd24"
_cell_length_a       8.620231628417969
_cell_length_b       8.620231288149066
_cell_length_c       101.6727523803711
_cell_angle_alpha    90.0
_cell_angle_beta     90.0
_cell_angle_gamma    59.99999869423402

_space_group_name_H-M_alt    "P 1"
_space_group_IT_number       1

loop_
  _space_group_symop_operation_xyz
  'x, y, z'

loop_
  _atom_site_type_symbol
  _atom_site_label
  _atom_site_symmetry_multiplicity
  _atom_site_fract_x
  _atom_site_fract_y
  _atom_site_fract_z
  _atom_site_occupancy
  C   C1        1.0  0.004166672218870636  0.004166673885700077  9.644235925979093e-05  1.0000
  O   O1        1.0  0.004166672218870636  0.004166673885700077  0.00021446832037276843  1.0000
  Cu  Cu1       1.0  0.0041666603148929155  0.004166659663871585  0.9991500752549385  1.0000
  Cu  Cu2       1.0  0.0008333273724486348  0.000833326231567632  0.9994962046018478  1.0000
  Cu  Cu3       1.0  0.0024999939444726852  0.0024999928541549472  0.9993231400749532  1.0000
  Pd  Pd1       1.0  0.0041666603148929155  0.004166659663871585  0.9994096723384005  1.0000
  Pd  Pd2       1.0  0.0008333273724486348  0.000833326231567632  0.9992366075183858  1.0000
  Pd  Pd3       1.0  0.0024999939444726852  0.0024999928541549472  0.999063542698371  1.0000
  Cu  Cu4       1.0  0.0041666603148929155  0.004166659663871585  0.9996692697149826  1.0000
  Cu  Cu5       1.0  0.0008333488783152195  0.0008333491237213888  0.0  1.0000
  Cu  Cu6       1.0  0.002500009786801217  0.002500009571041069  0.9998571831174331  1.0000
  Pd  Pd4       1.0  0.004166672218870636  0.004166673885700077  0.9999260868478788  1.0000
  Pd  Pd5       1.0  0.0008333306224193736  0.000833330535542044  0.999752209792202  1.0000
  Pd  Pd6       1.0  0.0024999939444726852  0.0024999928541549472  0.9995827371584153  1.0000
  Cu  Cu7       1.0  0.004166660307753145  0.009166660093021497  0.9991500752549385  1.0000
  Cu  Cu8       1.0  0.0008333271347560481  0.005833326473588222  0.9994962046018478  1.0000
  Cu  Cu9       1.0  0.0024999940620857963  0.007499993033799096  0.9993231400749532  1.0000
  Pd  Pd7       1.0  0.004166660307753145  0.009166660093021497  0.9994096723384005  1.0000
  Pd  Pd8       1.0  0.0008333271347560481  0.005833326473588222  0.9992366075183858  1.0000
  Pd  Pd9       1.0  0.0024999940620857963  0.007499993033799096  0.999063542698371  1.0000
  Cu  Cu10      1.0  0.004166660307753145  0.009166660093021497  0.9996692697149826  1.0000
  Cu  Cu11      1.0  0.0008333485013952534  0.00583334942811842  0.0  1.0000
  Cu  Cu12      1.0  0.0025000093475048106  0.0075000100001909814  0.9998571831174331  1.0000
  Pd  Pd10      1.0  0.004166672336483746  0.009166674065344226  0.9999260868478788  1.0000
  Pd  Pd11      1.0  0.0008333307567462066  0.00583333046568043  0.999752209792202  1.0000
  Pd  Pd12      1.0  0.0024999940620857963  0.007499993033799096  0.9995827371584153  1.0000
  Cu  Cu13      1.0  0.009166659865450014  0.004166659663871585  0.9991500752549385  1.0000
  Cu  Cu14      1.0  0.0058333270310448925  0.000833326231567632  0.9994962046018478  1.0000
  Cu  Cu15      1.0  0.0074999939271864205  0.0024999928541549472  0.9993231400749532  1.0000
  Pd  Pd13      1.0  0.009166659865450014  0.004166659663871585  0.9994096723384005  1.0000
  Pd  Pd14      1.0  0.0058333270310448925  0.000833326231567632  0.9992366075183858  1.0000
  Pd  Pd15      1.0  0.0074999939271864205  0.0024999928541549472  0.999063542698371  1.0000
  Cu  Cu16      1.0  0.009166659865450014  0.004166659663871585  0.9996692697149826  1.0000
  Cu  Cu17      1.0  0.005833348861028953  0.0008333491237213888  0.0  1.0000
  Cu  Cu18      1.0  0.007500009769514951  0.002500009571041069  0.9998571831174331  1.0000
  Pd  Pd16      1.0  0.009166671769427736  0.004166673885700077  0.9999260868478788  1.0000
  Pd  Pd17      1.0  0.005833330497093949  0.000833330535542044  0.999752209792202  1.0000
  Pd  Pd18      1.0  0.0074999939271864205  0.0024999928541549472  0.9995827371584153  1.0000
  Cu  Cu19      1.0  0.009166659858310245  0.009166660093021497  0.9991500752549385  1.0000
  Cu  Cu20      1.0  0.005833327117469783  0.005833326473588222  0.9994962046018478  1.0000
  Cu  Cu21      1.0  0.007499994044799531  0.007499993033799096  0.9993231400749532  1.0000
  Pd  Pd19      1.0  0.009166659858310245  0.009166660093021497  0.9994096723384005  1.0000
  Pd  Pd20      1.0  0.005833327117469783  0.005833326473588222  0.9992366075183858  1.0000
  Pd  Pd21      1.0  0.007499994044799531  0.007499993033799096  0.999063542698371  1.0000
  Cu  Cu22      1.0  0.009166659858310245  0.009166660093021497  0.9996692697149826  1.0000
  Cu  Cu23      1.0  0.005833348484108988  0.00583334942811842  0.0  1.0000
  Cu  Cu24      1.0  0.0075000097623751805  0.0075000100001909814  0.9998571831174331  1.0000
  Pd  Pd22      1.0  0.009166671887040847  0.009166674065344226  0.9999260868478788  1.0000
  Pd  Pd23      1.0  0.005833330307303305  0.00583333046568043  0.999752209792202  1.0000
  Pd  Pd24      1.0  0.007499994044799531  0.007499993033799096  0.9995827371584153  1.0000
