data_image0
_chemical_formula_structural       HAl6Ni4Al6Ni4
_chemical_formula_sum              "H1 Al12 Ni8"
_cell_length_a       7.042374610900879
_cell_length_b       6.4120909990404185
_cell_length_c       102.52733612060547
_cell_angle_alpha    108.48466026313994
_cell_angle_beta     90.0
_cell_angle_gamma    56.69141435160539

_space_group_name_H-M_alt    "P 1"
_space_group_IT_number       1

loop_
  _space_group_symop_operation_xyz
  'x, y, z'

loop_
  _atom_site_type_symbol
  _atom_site_label
  _atom_site_symmetry_multiplicity
  _atom_site_fract_x
  _atom_site_fract_y
  _atom_site_fract_z
  _atom_site_occupancy
  H   H1        1.0  0.009317180015821871  0.002064877743198445  0.00016158875102616587  1.0000
  Al  Al1       1.0  2.0181585934398466e-05  0.0007340759187592986  0.9996254491714787  1.0000
  Al  Al2       1.0  0.0050201816123835044  0.0007340759187592986  0.999427164835037  1.0000
  Al  Al3       1.0  0.008450268955978094  0.007207234282779653  0.999555517539022  1.0000
  Al  Al4       1.0  0.0034502690617745193  0.007207234282779653  0.9997538018754636  1.0000
  Al  Al5       1.0  0.0065900932276750845  0.004260918155816653  0.9994970966538183  1.0000
  Al  Al6       1.0  0.001590093597962573  0.004260918155816653  0.9996953809902599  1.0000
  Ni  Ni1       1.0  0.0009527722985762914  0.002202227756277896  0.9994562760119323  1.0000
  Ni  Ni2       1.0  0.0059527723250253975  0.002202227756277896  0.999654560348374  1.0000
  Ni  Ni3       1.0  0.004087589964424205  0.00926592468231841  0.999596338180908  1.0000
  Ni  Ni4       1.0  0.009087589858627782  0.00926592468231841  0.9993980535537895  1.0000
  Al  Al7       1.0  0.009979818224624725  0.0007396013255927347  2.777118620523182e-05  1.0000
  Al  Al8       1.0  0.0050201816123835044  0.0007340759187592986  0.9998237337985971  1.0000
  Al  Al9       1.0  0.008349871120892957  0.007296093103090116  0.9999582254472563  1.0000
  Al  Al10      1.0  0.0035077405184498352  0.0070775179565954575  0.00012377519614921315  1.0000
  Al  Al11      1.0  0.00670447554813896  0.004189862130204973  0.999887103567377  1.0000
  Al  Al12      1.0  0.0017809314574393647  0.004093418836236619  7.808963145717918e-05  1.0000
  Ni  Ni5       1.0  0.0009527722985762914  0.002202227756277896  0.9998528449754923  1.0000
  Ni  Ni6       1.0  0.005916985917724848  0.002236762300334007  4.4351531860431886e-05  1.0000
  Ni  Ni7       1.0  0.004059233820493743  0.009235773873123555  0.999992897630553  1.0000
  Ni  Ni8       1.0  0.009087589858627782  0.00926592468231841  0.9997946225173495  1.0000
