data_image0
_chemical_formula_structural       HGa20Rh12
_chemical_formula_sum              "H1 Ga20 Rh12"
_cell_length_a       11.426947469321771
_cell_length_b       5.048200325858034
_cell_length_c       105.96395111083984
_cell_angle_alpha    100.71933206188208
_cell_angle_beta     98.4559648974285
_cell_angle_gamma    93.53238349553301

_space_group_name_H-M_alt    "P 1"
_space_group_IT_number       1

loop_
  _space_group_symop_operation_xyz
  'x, y, z'

loop_
  _atom_site_type_symbol
  _atom_site_label
  _atom_site_symmetry_multiplicity
  _atom_site_fract_x
  _atom_site_fract_y
  _atom_site_fract_z
  _atom_site_occupancy
  H   H1        1.0  0.008801771455817394  0.003321287126021072  0.00020238082511164608  1.0000
  Ga  Ga1       1.0  0.005036979098749205  0.0005039323133898426  0.999582395348565  1.0000
  Ga  Ga2       1.0  3.6978999351237306e-05  0.005503932553646149  6.6427190241683e-06  1.0000
  Ga  Ga3       1.0  0.0049630212189933085  0.0051772444081263636  0.9995089197455653  1.0000
  Ga  Ga4       1.0  0.00996302104688278  0.00017724425205758985  0.9999331673588592  1.0000
  Ga  Ga5       1.0  0.005662182837896497  0.004822756172693334  6.475587103363525e-05  1.0000
  Ga  Ga6       1.0  0.0006621828031434097  0.009822755910087145  0.999640508531999  1.0000
  Ga  Ga7       1.0  0.004337817148864232  0.0008584206000682649  0.9998750542056147  1.0000
  Ga  Ga8       1.0  0.009337816976753703  0.005858420749935007  0.9994508063618077  1.0000
  Ga  Ga9       1.0  0.004343600393585533  0.009412084302963877  0.0001468130504335372  1.0000
  Ga  Ga10      1.0  0.00934360055245679  0.004412084403697554  0.999722565683939  1.0000
  Ga  Ga11      1.0  0.00565639992415698  0.006269092844773193  0.9997929968435364  1.0000
  Ga  Ga12      1.0  0.0006563997239130007  0.0012690925438917768  0.0002172443988510164  1.0000
  Ga  Ga13      1.0  0.0030073848947030964  0.0027630088160635947  0.9996923283862585  1.0000
  Ga  Ga14      1.0  0.008007384722592568  0.007763008757631318  0.0001165760904174882  1.0000
  Ga  Ga15      1.0  0.006992615092057631  0.0029181678833532796  0.9993989867024274  1.0000
  Ga  Ga16      1.0  0.0019926150986772674  0.007918168286545818  0.9998232337947619  1.0000
  Ga  Ga17      1.0  0.0077989396762873165  0.008692525051493585  0.9996528567147865  1.0000
  Ga  Ga18      1.0  0.0027989398483978445  0.003692524734400871  7.710399461250845e-05  1.0000
  Ga  Ga19      1.0  0.0022010601449825194  0.0069886523682085415  0.9994384584676576  1.0000
  Ga  Ga20      1.0  0.007201060138362883  0.001988651965016004  0.9998627060813859  1.0000
  Rh  Rh1       1.0  0.006446959845988933  0.008052730741371977  0.9994345720672198  1.0000
  Rh  Rh2       1.0  0.0014469596871176762  0.003052730730764297  0.9998588196257626  1.0000
  Rh  Rh3       1.0  0.00355304047175358  0.007628446030840104  0.9996567431173596  1.0000
  Rh  Rh4       1.0  0.008553040630624837  0.0026284459438112857  8.099045526423599e-05  1.0000
  Rh  Rh5       1.0  0.008886003672129042  0.0008724727599937509  0.9994933762450297  1.0000
  Rh  Rh6       1.0  0.0038860031822760006  0.005872472590220118  0.9999176238869135  1.0000
  Rh  Rh7       1.0  0.0011139967283589174  0.004808703931841821  0.9995979388501498  1.0000
  Rh  Rh8       1.0  0.006113996804484728  0.009808704488476996  2.2186001196062456e-05  1.0000
  Rh  Rh9       1.0  0.006915088566700804  0.0035300978308544554  0.9996417899102825  1.0000
  Rh  Rh10      1.0  0.0019150884078295482  0.008530097730120778  6.603727677706592e-05  1.0000
  Rh  Rh11      1.0  0.003084911751041708  0.002151078843721127  0.9994495251834318  1.0000
  Rh  Rh12      1.0  0.008084911909912965  0.007151079042091302  0.9998737726138652  1.0000
