data_image0
_chemical_formula_structural       HAl24W12Al24W12
_chemical_formula_sum              "H1 Al48 W24"
_cell_length_a       8.465814590454102
_cell_length_b       14.465768514917913
_cell_length_c       104.21417999267578
_cell_angle_alpha    99.72628807011728
_cell_angle_beta     90.0
_cell_angle_gamma    72.9853960266116

_space_group_name_H-M_alt    "P 1"
_space_group_IT_number       1

loop_
  _space_group_symop_operation_xyz
  'x, y, z'

loop_
  _atom_site_type_symbol
  _atom_site_label
  _atom_site_symmetry_multiplicity
  _atom_site_fract_x
  _atom_site_fract_y
  _atom_site_fract_z
  _atom_site_occupancy
  H   H1        1.0  0.005478560188107949  0.001241852325864185  0.00014205286401736543  1.0000
  Al  Al1       1.0  0.0004182954925087983  0.00577663981448787  0.9994410293874764  1.0000
  Al  Al2       1.0  0.002918295474723729  0.0007766398500580084  0.9993237770956673  1.0000
  Al  Al3       1.0  0.00791829569474333  0.0007766398500580084  0.9995582817381481  1.0000
  Al  Al4       1.0  0.005418295712528399  0.00577663981448787  0.9992065247449956  1.0000
  Al  Al5       1.0  0.004594352420260669  0.009109973352121489  0.9994032665990792  1.0000
  Al  Al6       1.0  0.007094352436677657  0.004109973319287513  0.999286014305666  1.0000
  Al  Al7       1.0  0.0020943524366776566  0.004109973319287513  0.9995205189481469  1.0000
  Al  Al8       1.0  0.009594352420260669  0.009109973352121489  0.9991687619565984  1.0000
  Al  Al9       1.0  0.005427685804669074  0.007443306583304678  0.9995960444757032  1.0000
  Al  Al10      1.0  0.00792768582108606  0.0024433065504707043  0.99947879218229  1.0000
  Al  Al11      1.0  0.002927685821086061  0.0024433065504707043  0.9992442875398092  1.0000
  Al  Al12      1.0  0.00042768580466907423  0.007443306583304678  0.9993615398332224  1.0000
  Al  Al13      1.0  0.003789189618724715  0.00577663981448787  0.9994410293874764  1.0000
  Al  Al14      1.0  0.006289189600939645  0.0007766398500580084  0.9993237770956673  1.0000
  Al  Al15      1.0  0.001289189710949446  0.0007766398500580084  0.9995582817381481  1.0000
  Al  Al16      1.0  0.008789189618724715  0.00577663981448787  0.9992065247449956  1.0000
  Al  Al17      1.0  0.0062797993733588265  0.009109973352121489  0.9991661195766566  1.0000
  Al  Al18      1.0  0.008779799389775814  0.004109973319287513  0.9995178762822332  1.0000
  Al  Al19      1.0  0.003779799389775814  0.004109973319287513  0.9992833716397523  1.0000
  Al  Al20      1.0  0.0012797993733588264  0.009109973352121489  0.9994006239331655  1.0000
  Al  Al21      1.0  0.007113132757767232  0.007443306583304678  0.999364182499136  1.0000
  Al  Al22      1.0  0.009613132774184218  0.0024433065504707043  0.9992469302057227  1.0000
  Al  Al23      1.0  0.004613132774184218  0.0024433065504707043  0.9994814345622318  1.0000
  Al  Al24      1.0  0.002113132757767232  0.007443306583304678  0.9995986871416168  1.0000
  W   W1        1.0  0.003770409281218153  0.007443306583304678  0.9993628613091651  1.0000
  W   W2        1.0  0.00627040929763514  0.0024433065504707043  0.9992456090157519  1.0000
  W   W3        1.0  0.0012704092976351397  0.0024433065504707043  0.9994801133722608  1.0000
  W   W4        1.0  0.008770409281218153  0.007443306583304678  0.999597365665674  1.0000
  W   W5        1.0  0.007937075896809748  0.009109973352121489  0.9994019454091083  1.0000
  W   W6        1.0  0.0004370759132267353  0.004109973319287513  0.9992846931156951  1.0000
  W   W7        1.0  0.005437075913226735  0.004109973319287513  0.9995191974722041  1.0000
  W   W8        1.0  0.0029370758968097475  0.009109973352121489  0.9991674407666274  1.0000
  W   W9        1.0  0.007103742665626557  0.00577663981448787  0.9994410293874764  1.0000
  W   W10       1.0  0.009603742647841487  0.0007766398500580084  0.9993237770956673  1.0000
  W   W11       1.0  0.004603742647841487  0.0007766398500580084  0.9995582817381481  1.0000
  W   W12       1.0  0.002103742665626557  0.00577663981448787  0.9992065247449956  1.0000
  Al  Al25      1.0  0.009654344259133116  0.006005015428991023  0.9999386010873339  1.0000
  Al  Al26      1.0  0.0026881908490677224  0.0007966919686513821  0.9997889438704566  1.0000
  Al  Al27      1.0  0.0072734995635976366  0.000915797142398793  2.1475862908474723e-05  1.0000
  Al  Al28      1.0  0.005418295712528399  0.00577663981448787  0.9996755340299572  1.0000
  Al  Al29      1.0  0.00458063507976749  0.0092233600103976  0.9998757178441079  1.0000
  Al  Al30      1.0  0.007094352436677657  0.004109973319287513  0.9997550235906276  1.0000
  Al  Al31      1.0  0.0021682805533260042  0.0042576878978033  0.9999866748034535  1.0000
  Al  Al32      1.0  0.009594352420260669  0.009109973352121489  0.9996377709555881  1.0000
  Al  Al33      1.0  0.005336186791526594  0.007793913781555551  4.9841410583357196e-05  1.0000
  Al  Al34      1.0  0.008026477886703982  0.0025852390660938973  0.9999553588016173  1.0000
  Al  Al35      1.0  0.002927685821086061  0.0024433065504707043  0.9997132965387989  1.0000
  Al  Al36      1.0  0.00034565613474428963  0.0074073566647294324  0.9998213617033473  1.0000
  Al  Al37      1.0  0.0032002793406596943  0.0058428095758719075  0.9999213343027045  1.0000
  Al  Al38      1.0  0.005912420054291936  0.0008349231644065919  0.9997942455199842  1.0000
  Al  Al39      1.0  0.0008377922990468309  0.0009715620909105682  2.6850096301442676e-05  1.0000
  Al  Al40      1.0  0.008789189618724715  0.00577663981448787  0.9996755340299572  1.0000
  Al  Al41      1.0  0.0062797993733588265  0.009109973352121489  0.9996351285756464  1.0000
  Al  Al42      1.0  0.00888002818336014  0.0042552193301610055  0.9999936358076237  1.0000
  Al  Al43      1.0  0.003779799389775814  0.004109973319287513  0.9997523806387422  1.0000
  Al  Al44      1.0  0.0012780078748437175  0.009119939557819  0.9998577911966923  1.0000
  Al  Al45      1.0  0.007003912440275575  0.007438217864504922  0.999820268347465  1.0000
  Al  Al46      1.0  0.009613132774184218  0.0024433065504707043  0.9997159394906845  1.0000
  Al  Al47      1.0  0.004703098307336182  0.00262139665955725  0.9999545955483313  1.0000
  Al  Al48      1.0  0.0015460207929313533  0.007919937689346963  4.472202770401145e-05  1.0000
  W   W13       1.0  0.0037289893756046995  0.00738708168553479  0.9998412880498802  1.0000
  W   W14       1.0  0.00627040929763514  0.0024433065504707043  0.9997146183007135  1.0000
  W   W15       1.0  0.0014940826470852548  0.0024625114157162207  0.9999536887270581  1.0000
  W   W16       1.0  0.008309939733419227  0.008093315302257134  4.0923586208137216e-05  1.0000
  W   W17       1.0  0.007937787622597246  0.009111519285083023  0.9998716549735545  1.0000
  W   W18       1.0  0.0004370759132267353  0.004109973319287513  0.9997537024006568  1.0000
  W   W19       1.0  0.005549246364364993  0.004364857990258869  0.9999801009495921  1.0000
  W   W20       1.0  0.0029370758968097475  0.009109973352121489  0.9996364497656173  1.0000
  W   W21       1.0  0.006508178413080345  0.005799978203494431  0.9999190470176406  1.0000
  W   W22       1.0  0.00930167269914232  0.0008038619510036899  0.9998031898323168  1.0000
  W   W23       1.0  0.003908379222195412  0.0011183898100968726  2.0872216844302608e-05  1.0000
  W   W24       1.0  0.002103742665626557  0.00577663981448787  0.9996755340299572  1.0000
