data_image0
_chemical_formula_structural       CORh24Sb8
_chemical_formula_sum              "C1 O1 Rh24 Sb8"
_cell_length_a       5.62461519241333
_cell_length_b       6.888718605041504
_cell_length_c       31.031522750854492
_cell_angle_alpha    90.0
_cell_angle_beta     90.0
_cell_angle_gamma    90.0

_space_group_name_H-M_alt    "P 1"
_space_group_IT_number       1

loop_
  _space_group_symop_operation_xyz
  'x, y, z'

loop_
  _atom_site_type_symbol
  _atom_site_label
  _atom_site_symmetry_multiplicity
  _atom_site_fract_x
  _atom_site_fract_y
  _atom_site_fract_z
  _atom_site_occupancy
  C   C1        1.0  0.009999993747707317  0.004929371472807958  9.866216707935207e-05  1.0000
  O   O1        1.0  0.009999993747707317  0.004929371472807958  0.00048536554005650464  1.0000
  Rh  Rh1       1.0  0.0074970003036282885  0.004929372013589272  0.9995405034887462  1.0000
  Rh  Rh2       1.0  0.00250000009272468  0.0015983685374037235  0.9990203685180297  1.0000
  Rh  Rh3       1.0  0.00749999994701447  0.008265034996770886  0.9984971305315697  1.0000
  Rh  Rh4       1.0  0.0025608443717030816  0.008401631489635342  0.0  1.0000
  Rh  Rh5       1.0  0.0025029881455259063  0.004929370932026644  0.9995405034887462  1.0000
  Rh  Rh6       1.0  0.00749999994701447  0.0015983685374037235  0.9990203685180297  1.0000
  Rh  Rh7       1.0  0.00250000009272468  0.008265034996770886  0.9984971305315697  1.0000
  Rh  Rh8       1.0  0.007439167920940162  0.00840162283713432  0.9999999990396113  1.0000
  Rh  Rh9       1.0  0.009999995734664738  0.0016072810190431164  0.9997745454019511  1.0000
  Rh  Rh10      1.0  0.00500000018544936  0.008248878614236201  0.9992710232341834  1.0000
  Rh  Rh11      1.0  1.0000000045535048e-10  0.004931701699489641  0.9987587495247997  1.0000
  Rh  Rh12      1.0  0.00499999985428979  0.0015983685374037235  0.9982355115383398  1.0000
  Rh  Rh13      1.0  0.00749999994701447  0.0015983685374037235  0.9974506550388442  1.0000
  Rh  Rh14      1.0  0.00250000009272468  0.008265034996770886  0.9969274172924816  1.0000
  Rh  Rh15      1.0  0.00749999994701447  0.004931701699489641  0.9964041793060217  1.0000
  Rh  Rh16      1.0  0.00250000009272468  0.004931701699489641  0.9979738925451098  1.0000
  Rh  Rh17      1.0  0.00250000009272468  0.0015983685374037235  0.9974506550388442  1.0000
  Rh  Rh18      1.0  0.00749999994701447  0.008265034996770886  0.9969274172924816  1.0000
  Rh  Rh19      1.0  0.00250000009272468  0.004931701699489641  0.9964041793060217  1.0000
  Rh  Rh20      1.0  0.00749999994701447  0.004931701699489641  0.9979738925451098  1.0000
  Rh  Rh21      1.0  1.0000000045535048e-10  0.008265034996770886  0.9977122740320742  1.0000
  Rh  Rh22      1.0  0.00499999985428979  0.004931701699489641  0.9971890360456143  1.0000
  Rh  Rh23      1.0  1.0000000045535048e-10  0.0015983685374037235  0.9966657982992516  1.0000
  Rh  Rh24      1.0  0.00499999985428979  0.008265034996770886  0.9961425605528889  1.0000
  Sb  Sb1       1.0  1.0000000045535048e-10  0.0015983685374037235  0.9982355115383398  1.0000
  Sb  Sb2       1.0  0.00499999985428979  0.0017260322693295142  0.9998005906620719  1.0000
  Sb  Sb3       1.0  0.00999999970857958  0.008209933707132914  0.9992630664141792  1.0000
  Sb  Sb4       1.0  0.00499999985428979  0.004931701699489641  0.9987587495247997  1.0000
  Sb  Sb5       1.0  1.0000000045535048e-10  0.008265034996770886  0.9961425605528889  1.0000
  Sb  Sb6       1.0  0.00499999985428979  0.008265034996770886  0.9977122740320742  1.0000
  Sb  Sb7       1.0  1.0000000045535048e-10  0.004931701699489641  0.9971890360456143  1.0000
  Sb  Sb8       1.0  0.00499999985428979  0.0015983685374037235  0.9966657982992516  1.0000
