data_image0
_chemical_formula_structural       HSb16Rh8
_chemical_formula_sum              "H1 Sb16 Rh8"
_cell_length_a       6.6856608390808105
_cell_length_b       7.15053177211769
_cell_length_c       35.42533493041992
_cell_angle_alpha    89.25137769913019
_cell_angle_beta     90.0
_cell_angle_gamma    90.0

_space_group_name_H-M_alt    "P 1"
_space_group_IT_number       1

loop_
  _space_group_symop_operation_xyz
  'x, y, z'

loop_
  _atom_site_type_symbol
  _atom_site_label
  _atom_site_symmetry_multiplicity
  _atom_site_fract_x
  _atom_site_fract_y
  _atom_site_fract_z
  _atom_site_occupancy
  H   H1        1.0  0.009005344862546463  0.003686725347848194  0.0003500380609035019  1.0000
  Sb  Sb1       1.0  0.006837536611554209  0.00274884220664789  8.89302206053989e-05  1.0000
  Sb  Sb2       1.0  0.006385441955646474  0.007628394130016715  0.998510325899046  1.0000
  Sb  Sb3       1.0  0.0011731532026916776  0.004687910463769581  0.9999154868218953  1.0000
  Sb  Sb4       1.0  0.0013854417216199563  0.009927839989964302  0.9982479443544329  1.0000
  Sb  Sb5       1.0  0.003614558233803564  0.007427839489779967  0.9974346217329901  1.0000
  Sb  Sb6       1.0  0.003614558233803564  0.002427839531461995  0.9990612669321338  1.0000
  Sb  Sb7       1.0  0.008614557910624087  0.00512839415085773  0.9976970032762292  1.0000
  Sb  Sb8       1.0  0.008855311019191636  7.216050468413876e-05  0.99934847547553  1.0000
  Sb  Sb9       1.0  0.00363228936436579  0.0026472836851974516  0.9975209183465877  1.0000
  Sb  Sb10      1.0  0.00363228936436579  0.0076472839040280976  0.9991475635915341  1.0000
  Sb  Sb11      1.0  0.008632289319789311  0.004908950257634947  0.9992373514404526  1.0000
  Sb  Sb12      1.0  0.008632289319789311  0.009908950736978268  0.9976107066605706  1.0000
  Sb  Sb13      1.0  0.006540410415290888  0.0074497579841424225  0.9999803530875081  1.0000
  Sb  Sb14      1.0  0.00636771054648125  0.002408950278475961  0.9984240292382716  1.0000
  Sb  Sb15      1.0  0.0013677104517562312  0.005147283403843763  0.9983342409700915  1.0000
  Sb  Sb16      1.0  0.0015687098379291921  0.00047409112463246456  0.9999807830873245  1.0000
  Rh  Rh1       1.0  5.261499771631073e-06  0.0028221080096218127  0.9971848396222913  1.0000
  Rh  Rh2       1.0  5.261499771631073e-06  0.00782210822845246  0.998811484446602  1.0000
  Rh  Rh3       1.0  0.004963697984864965  0.0047076354414146765  0.9995677764367197  1.0000
  Rh  Rh4       1.0  0.00500526165163203  0.009734125891528559  0.9979467853862412  1.0000
  Rh  Rh5       1.0  0.009994738771844525  0.007234125912369572  0.9971334629737423  1.0000
  Rh  Rh6       1.0  0.009994738771844525  0.0022341256935389255  0.9987601079632551  1.0000
  Rh  Rh7       1.0  0.00499473825921501  0.005322108249293473  0.997998162244421  1.0000
  Rh  Rh8       1.0  0.005103804646217165  0.0004200501149690366  0.9996169570919123  1.0000
