data_image0
_chemical_formula_structural       COAl3Cu3Pd6Al3Cu3Pd6Al3Cu3Pd6Al3Cu3Pd6
_chemical_formula_sum              "C1 O1 Al12 Cu12 Pd24"
_cell_length_a       8.659401099028402
_cell_length_b       8.659400939941406
_cell_length_c       101.8166732788086
_cell_angle_alpha    90.0
_cell_angle_beta     90.0
_cell_angle_gamma    119.99999939227258

_space_group_name_H-M_alt    "P 1"
_space_group_IT_number       1

loop_
  _space_group_symop_operation_xyz
  'x, y, z'

loop_
  _atom_site_type_symbol
  _atom_site_label
  _atom_site_symmetry_multiplicity
  _atom_site_fract_x
  _atom_site_fract_y
  _atom_site_fract_z
  _atom_site_occupancy
  C   C1        1.0  0.004166666732900573  0.0025000000976472306  8.331165749927971e-05  1.0000
  O   O1        1.0  0.004166666732900573  0.0025000000976472306  0.00020117078540296727  1.0000
  Al  Al1       1.0  0.0024999999403894847  0.004166666550821039  0.9995659864997567  1.0000
  Al  Al2       1.0  0.004166666732900573  0.0025000000976472306  0.9999131969487045  1.0000
  Al  Al3       1.0  0.0008333333341612573  0.0008333333445023415  0.9992187754653974  1.0000
  Cu  Cu1       1.0  0.0008333333341612573  0.0008333333445023415  0.9997395920169363  1.0000
  Cu  Cu2       1.0  0.0024999999403894847  0.004166666550821039  0.9990451699482178  1.0000
  Cu  Cu3       1.0  0.004166666732900573  0.0025000000976472306  0.9993923806898714  1.0000
  Pd  Pd1       1.0  0.0024999999403894847  0.004166666550821039  0.9993055782239872  1.0000
  Pd  Pd2       1.0  0.004166666732900573  0.0025000000976472306  0.9996527889656408  1.0000
  Pd  Pd3       1.0  0.0008333333341612573  0.0008333333445023415  0.0  1.0000
  Pd  Pd4       1.0  0.004166666732900573  0.0025000000976472306  0.9991319727068076  1.0000
  Pd  Pd5       1.0  0.0008333333341612573  0.0008333333445023415  0.9994791834484611  1.0000
  Pd  Pd6       1.0  0.0024999999403894847  0.004166666550821039  0.9998263944828204  1.0000
  Al  Al4       1.0  0.0024999999403894847  0.00916666646478067  0.9995659864997567  1.0000
  Al  Al5       1.0  0.004166666732900573  0.0075000001191573235  0.9999131969487045  1.0000
  Al  Al6       1.0  0.0008333333341612573  0.005833333419787666  0.9992187754653974  1.0000
  Cu  Cu4       1.0  0.0008333333341612573  0.005833333419787666  0.9997395920169363  1.0000
  Cu  Cu5       1.0  0.0024999999403894847  0.00916666646478067  0.9990451699482178  1.0000
  Cu  Cu6       1.0  0.004166666732900573  0.0075000001191573235  0.9993923806898714  1.0000
  Pd  Pd7       1.0  0.0024999999403894847  0.00916666646478067  0.9993055782239872  1.0000
  Pd  Pd8       1.0  0.004166666732900573  0.0075000001191573235  0.9996527889656408  1.0000
  Pd  Pd9       1.0  0.0008333333341612573  0.005833333419787666  0.0  1.0000
  Pd  Pd10      1.0  0.004166666732900573  0.0075000001191573235  0.9991319727068076  1.0000
  Pd  Pd11      1.0  0.0008333333341612573  0.005833333419787666  0.9994791834484611  1.0000
  Pd  Pd12      1.0  0.0024999999403894847  0.00916666646478067  0.9998263944828204  1.0000
  Al  Al7       1.0  0.007499999821168455  0.004166666561118324  0.9995659864997567  1.0000
  Al  Al8       1.0  0.009166666613679543  0.0024999999735064384  0.9999131969487045  1.0000
  Al  Al9       1.0  0.005833333525411661  0.0008333334293724974  0.9992187754653974  1.0000
  Cu  Cu7       1.0  0.005833333525411661  0.0008333334293724974  0.9997395920169363  1.0000
  Cu  Cu8       1.0  0.007499999821168455  0.004166666561118324  0.9990451699482178  1.0000
  Cu  Cu9       1.0  0.009166666613679543  0.0024999999735064384  0.9993923806898714  1.0000
  Pd  Pd13      1.0  0.007499999821168455  0.004166666561118324  0.9993055782239872  1.0000
  Pd  Pd14      1.0  0.009166666613679543  0.0024999999735064384  0.9996527889656408  1.0000
  Pd  Pd15      1.0  0.005833333525411661  0.0008333334293724974  0.0  1.0000
  Pd  Pd16      1.0  0.009166666613679543  0.0024999999735064384  0.9991319727068076  1.0000
  Pd  Pd17      1.0  0.005833333525411661  0.0008333334293724974  0.9994791834484611  1.0000
  Pd  Pd18      1.0  0.007499999821168455  0.004166666561118324  0.9998263944828204  1.0000
  Al  Al10      1.0  0.007499999821168455  0.009166666663291264  0.9995659864997567  1.0000
  Al  Al11      1.0  0.009166666613679543  0.007500000102566994  0.9999131969487045  1.0000
  Al  Al12      1.0  0.005833333525411661  0.005833333558433052  0.9992187754653974  1.0000
  Cu  Cu10      1.0  0.005833333525411661  0.005833333558433052  0.9997395920169363  1.0000
  Cu  Cu11      1.0  0.007499999821168455  0.009166666663291264  0.9990451699482178  1.0000
  Cu  Cu12      1.0  0.009166666613679543  0.007500000102566994  0.9993923806898714  1.0000
  Pd  Pd19      1.0  0.007499999821168455  0.009166666663291264  0.9993055782239872  1.0000
  Pd  Pd20      1.0  0.009166666613679543  0.007500000102566994  0.9996527889656408  1.0000
  Pd  Pd21      1.0  0.005833333525411661  0.005833333558433052  0.0  1.0000
  Pd  Pd22      1.0  0.009166666613679543  0.007500000102566994  0.9991319727068076  1.0000
  Pd  Pd23      1.0  0.005833333525411661  0.005833333558433052  0.9994791834484611  1.0000
  Pd  Pd24      1.0  0.007499999821168455  0.009166666663291264  0.9998263944828204  1.0000
