data_image0
_chemical_formula_structural       Ag8In16H
_chemical_formula_sum              "Ag8 In16 H1"
_cell_length_a       5.779553286302959
_cell_length_b       9.184824585779259
_cell_length_c       36.451900482177734
_cell_angle_alpha    84.73299909014298
_cell_angle_beta     85.81703677080192
_cell_angle_gamma    97.65522782620769

_space_group_name_H-M_alt    "P 1"
_space_group_IT_number       1

loop_
  _space_group_symop_operation_xyz
  'x, y, z'

loop_
  _atom_site_type_symbol
  _atom_site_label
  _atom_site_symmetry_multiplicity
  _atom_site_fract_x
  _atom_site_fract_y
  _atom_site_fract_z
  _atom_site_occupancy
  Ag  Ag1       1.0  0.008169895477084979  0.008767963513514937  0.9988277138988765  1.0000
  Ag  Ag2       1.0  0.004836561924848077  0.0037679632666661753  0.9980607649811973  1.0000
  Ag  Ag3       1.0  0.0015032288561968527  0.008767963513514937  0.9972938161282641  1.0000
  Ag  Ag4       1.0  0.001533562216362792  0.003946406945126112  0.9996130071953979  1.0000
  Ag  Ag5       1.0  0.008062212659261839  0.0015088339478331549  0.999871860000487  1.0000
  Ag  Ag6       1.0  0.0048365621018243415  0.006267963595797857  0.9992111885075826  1.0000
  Ag  Ag7       1.0  0.0015032288957208967  0.0012679634518027462  0.9984442395835215  1.0000
  Ag  Ag8       1.0  0.00816989539207199  0.006267963595797857  0.9976772903619114  1.0000
  In  In1       1.0  0.0031698954779053024  0.008295430803091837  0.9986102690101916  1.0000
  In  In2       1.0  0.009836562292302918  0.0032954309676576777  0.9978433201114594  1.0000
  In  In3       1.0  0.00650322884893861  0.008295430803091837  0.9970763708635861  1.0000
  In  In4       1.0  0.006415790384023454  0.0033989237509189354  0.9993183680290827  1.0000
  In  In5       1.0  0.001505207008952812  0.0007595040126253597  0.9993208362557753  1.0000
  In  In6       1.0  0.007763315402861651  0.005795430885374757  0.9985167214050967  1.0000
  In  In7       1.0  0.004429981931092615  0.0007954309985137729  0.9977497720693707  1.0000
  In  In8       1.0  0.006631772221549508  0.004845861708872758  6.307972530313442e-05  1.0000
  In  In9       1.0  0.005629831625162492  0.008998300561472319  0.9995824574878525  1.0000
  In  In10      1.0  0.001909808946953406  0.004240495977089275  0.9987552324887358  1.0000
  In  In11      1.0  0.008576475466295317  0.009240496223938037  0.9979882832644809  1.0000
  In  In12      1.0  0.005243142237201054  0.004240495977089275  0.9972213343430646  1.0000
  In  In13      1.0  0.00016343766642651358  0.007059004029098401  0.9994770824933037  1.0000
  In  In14      1.0  0.006503228791124096  0.0017404960593721958  0.9986616844757855  1.0000
  In  In15      1.0  0.003169895509331106  0.006740495894806355  0.9978947356348334  1.0000
  In  In16      1.0  0.009836562081371744  0.0017404960593721958  0.9971277863301143  1.0000
  H   H1        1.0  0.0008343223344900157  0.008909253984863101  0.9998104606109481  1.0000
