data_image0
_chemical_formula_structural       COPt9Pb3
_chemical_formula_sum              "C1 O1 Pt9 Pb3"
_cell_length_a       5.873236179351807
_cell_length_b       5.873236322165113
_cell_length_c       98.77286529541016
_cell_angle_alpha    90.0
_cell_angle_beta     90.0
_cell_angle_gamma    60.00000080436506

_space_group_name_H-M_alt    "P 1"
_space_group_IT_number       1

loop_
  _space_group_symop_operation_xyz
  'x, y, z'

loop_
  _atom_site_type_symbol
  _atom_site_label
  _atom_site_symmetry_multiplicity
  _atom_site_fract_x
  _atom_site_fract_y
  _atom_site_fract_z
  _atom_site_occupancy
  C   C1        1.0  2.6780084663027724e-06  0.005813128858608808  0.0001228760241201444  1.0000
  O   O1        1.0  2.6780084663027724e-06  0.005813128858608808  0.0002443665233393456  1.0000
  Pt  Pt1       1.0  0.0032606661319647865  0.00918413787470487  0.9997194547421718  1.0000
  Pt  Pt2       1.0  0.006664022805311847  0.002482479452197664  0.9994757770588475  1.0000
  Pt  Pt3       1.0  2.6780084663027724e-06  0.005813128858608808  0.9999475190202155  1.0000
  Pt  Pt4       1.0  0.008365676719696378  0.009184088071083478  0.9997194511214622  1.0000
  Pt  Pt5       1.0  0.0016640225896558333  0.002482479452197664  0.9994757770588475  1.0000
  Pt  Pt6       1.0  0.00499467140939625  0.005813128126202611  0.9999475184167639  1.0000
  Pt  Pt7       1.0  0.008365705636625571  0.004079121299473746  0.9997194592680589  1.0000
  Pt  Pt8       1.0  0.0016640229659153681  0.0074824792324758044  0.9994757770588475  1.0000
  Pt  Pt9       1.0  0.00499465298446047  0.0008211709899237313  0.9999475208305704  1.0000
  Pb  Pb1       1.0  0.006664022864430186  0.0074824792324758044  0.9994757770588475  1.0000
  Pb  Pb2       1.0  0.009997321940404938  0.0008158620520545108  0.0  1.0000
  Pb  Pb3       1.0  0.0033306973096970606  0.004149166064726427  0.9997106123657026  1.0000
