data_image0
_chemical_formula_structural       COSi12V20
_chemical_formula_sum              "C1 O1 Si12 V20"
_cell_length_a       7.079945826455297
_cell_length_b       7.079946007829581
_cell_length_c       99.98689270019531
_cell_angle_alpha    83.77558374343351
_cell_angle_beta     83.77558358334595
_cell_angle_gamma    83.55508880518376

_space_group_name_H-M_alt    "P 1"
_space_group_IT_number       1

loop_
  _space_group_symop_operation_xyz
  'x, y, z'

loop_
  _atom_site_type_symbol
  _atom_site_label
  _atom_site_symmetry_multiplicity
  _atom_site_fract_x
  _atom_site_fract_y
  _atom_site_fract_z
  _atom_site_occupancy
  C   C1        1.0  0.007469420261215331  0.004984753228107228  0.9999888964179796  1.0000
  O   O1        1.0  0.007469420261215331  0.004984753228107228  0.00010891239202005063  1.0000
  Si  Si1       1.0  0.0069191219127291035  0.00023699064469469408  0.9995199827433124  1.0000
  Si  Si2       1.0  0.003928571434022632  0.003928571493937965  0.9991275769739001  1.0000
  Si  Si3       1.0  0.009522704656183798  0.006204835812809077  0.9993057626013246  1.0000
  Si  Si4       1.0  0.0030808784987647023  0.009763009160440822  0.9993778317583369  1.0000
  Si  Si5       1.0  0.004642857036916341  0.004642856905713431  0.9993417969631778  1.0000
  Si  Si6       1.0  0.009048723793583364  0.0023665925868423194  0.9991636114730246  1.0000
  Si  Si7       1.0  0.008106333222005936  0.0015201953061313232  0.9999260942913853  1.0000
  Si  Si8       1.0  0.00535714314205366  0.005357142583515497  0.9995560172446196  1.0000
  Si  Si9       1.0  0.0008442636031341693  0.007558022678678277  0.9997271315241132  1.0000
  Si  Si10      1.0  0.004518882604120993  0.0012244325186540406  0.9998070384661027  1.0000
  Si  Si11      1.0  0.006073428626028557  0.005939388086550771  0.999793043317256  1.0000
  Si  Si12      1.0  0.0004772950987631301  0.003795163942446452  0.9995920519057482  1.0000
  V   V1        1.0  0.005895320217059599  0.001394628755665643  0.9992667140658639  1.0000
  V   V2        1.0  0.008928572079854515  0.00892857097252583  0.9991275768119913  1.0000
  V   V3        1.0  0.0021089145307149936  0.006609605925986412  0.999480934349601  1.0000
  V   V4        1.0  0.007891085858799357  0.0033903940952957168  0.9994168798524954  1.0000
  V   V5        1.0  0.00964285712640134  0.009642856650327896  0.9993417971015601  1.0000
  V   V6        1.0  0.001609316819866929  0.0031043763942347705  0.9993311010444538  1.0000
  V   V7        1.0  0.0026761085185269965  0.007176799643985753  0.9992026598691822  1.0000
  V   V8        1.0  0.006181337818215512  0.007676397599049067  0.9993524931742361  1.0000
  V   V9        1.0  0.006962112048043478  0.0054670520054166255  0.9991382731876388  1.0000
  V   V10       1.0  0.002390090890319447  0.0008950310666289286  0.9991168807589753  1.0000
  V   V11       1.0  0.007323292901080063  0.002860409783884587  0.9996910264718184  1.0000
  V   V12       1.0  0.00035714285408294203  0.00035714283890103313  0.9995560171077611  1.0000
  V   V13       1.0  0.0033913893075267635  0.008074566528170523  0.9998678497063622  1.0000
  V   V14       1.0  0.009347493010025952  0.004512199005160967  0.9998345733435353  1.0000
  V   V15       1.0  0.0011157543824106527  0.0011401301522159088  0.9997747633822537  1.0000
  V   V16       1.0  0.0030476264491904547  0.0045295763947353265  0.9997448799312627  1.0000
  V   V17       1.0  0.004104679934858765  0.008605370999589886  0.9996311004381612  1.0000
  V   V18       1.0  0.007537921238460718  0.009092818987771596  0.9997787817845255  1.0000
  V   V19       1.0  0.008390683199727623  0.006895623361020758  0.999566713162525  1.0000
  V   V20       1.0  0.0038186623066512157  0.002323602422233061  0.9995453210298919  1.0000
