data_image0
_chemical_formula_structural       COZn2Pt2Zn2Pt2Zn2Pt2Zn2Pt2
_chemical_formula_sum              "C1 O1 Zn8 Pt8"
_cell_length_a       5.792597770690918
_cell_length_b       4.598393156791377
_cell_length_c       102.18875122070312
_cell_angle_alpha    78.07814573776045
_cell_angle_beta     90.0
_cell_angle_gamma    90.0

_space_group_name_H-M_alt    "P 1"
_space_group_IT_number       1

loop_
  _space_group_symop_operation_xyz
  'x, y, z'

loop_
  _atom_site_type_symbol
  _atom_site_label
  _atom_site_symmetry_multiplicity
  _atom_site_fract_x
  _atom_site_fract_y
  _atom_site_fract_z
  _atom_site_occupancy
  C   C1        1.0  0.004999998958158235  0.009041784265277986  8.178887430004719e-05  1.0000
  O   O1        1.0  0.004999998958158235  0.009041784265277986  0.00019921886708641466  1.0000
  Zn  Zn1       1.0  0.0025000007653035185  2.744549813466866e-06  0.999243564570119  1.0000
  Zn  Zn2       1.0  0.0025000007653035185  0.0050027444165510315  0.9994685595964469  1.0000
  Pt  Pt1       1.0  8.500000004848228e-10  2.744549813466866e-06  0.9994685595427129  1.0000
  Pt  Pt2       1.0  8.500000004848228e-10  0.0050027444165510315  0.9992435643322131  1.0000
  Zn  Zn3       1.0  0.002500000443747418  0.009997255318492746  0.9996922043170178  1.0000
  Zn  Zn4       1.0  0.0024999991575230173  0.004772175371926998  0.999925790727003  1.0000
  Pt  Pt3       1.0  0.009999999202540872  0.009837041258770978  0.9999085570323094  1.0000
  Pt  Pt4       1.0  1.5499999693161686e-09  0.0050424418965576995  0.9996884143204184  1.0000
  Zn  Zn5       1.0  0.007500000848908105  2.744549813466866e-06  0.999243564570119  1.0000
  Zn  Zn6       1.0  0.007500000848908105  0.0050027444165510315  0.9994685595964469  1.0000
  Pt  Pt5       1.0  0.005000000887494836  2.744549813466866e-06  0.9994685595427129  1.0000
  Pt  Pt6       1.0  0.005000000887494836  0.0050027444165510315  0.9992435643322131  1.0000
  Zn  Zn7       1.0  0.007500000205795904  0.009997255318492746  0.9996922043170178  1.0000
  Zn  Zn8       1.0  0.007499998919571504  0.004772175371926998  0.999925790727003  1.0000
  Pt  Pt7       1.0  0.004999998958158235  0.009837041258770978  0.9999085570323094  1.0000
  Pt  Pt8       1.0  0.005000001530607037  0.0050424418965576995  0.9996884143204184  1.0000
