data_image0
_chemical_formula_structural       HMn8Rh8Sb8Mn8Rh8Sb8
_chemical_formula_sum              "H1 Mn16 Rh16 Sb16"
_cell_length_a       10.420988928906313
_cell_length_b       8.508702278137207
_cell_length_c       109.45323181152344
_cell_angle_alpha    90.0
_cell_angle_beta     84.94884729499158
_cell_angle_gamma    90.0

_space_group_name_H-M_alt    "P 1"
_space_group_IT_number       1

loop_
  _space_group_symop_operation_xyz
  'x, y, z'

loop_
  _atom_site_type_symbol
  _atom_site_label
  _atom_site_symmetry_multiplicity
  _atom_site_fract_x
  _atom_site_fract_y
  _atom_site_fract_z
  _atom_site_occupancy
  H   H1        1.0  0.00028440521393156425  0.005000000052538545  0.9999801222295925  1.0000
  Mn  Mn1       1.0  0.009140676168144405  0.009999999229434677  0.9998690087595595  1.0000
  Mn  Mn2       1.0  0.005965594835413504  1.9999999525453949e-10  0.99964749472437  1.0000
  Mn  Mn3       1.0  0.002840594978962794  1.9999999525453949e-10  0.9994222090582751  1.0000
  Mn  Mn4       1.0  0.009715595380900806  1.9999999525453949e-10  0.9991969229543604  1.0000
  Mn  Mn5       1.0  0.005803053615521992  0.0025000002451798756  0.9999513545653493  1.0000
  Mn  Mn6       1.0  0.0025698152617677572  0.0025000002451798756  0.9997648367264689  1.0000
  Mn  Mn7       1.0  0.00940309503638251  0.0025000002451798756  0.9995348516724126  1.0000
  Mn  Mn8       1.0  0.0062780951799318  0.0025000002451798756  0.9993095660063177  1.0000
  Rh  Rh1       1.0  0.004797185438258968  0.0025000002451798756  0.9997648831478164  1.0000
  Rh  Rh2       1.0  0.0019030948425909687  0.0025000002451798756  0.9995348518646356  1.0000
  Rh  Rh3       1.0  0.008778095065092369  0.0025000002451798756  0.9993095657622251  1.0000
  Rh  Rh4       1.0  0.008183583527496189  0.0024999991506268592  0.9999517622275514  1.0000
  Rh  Rh5       1.0  0.008465594720574073  1.9999999525453949e-10  0.9996474944802775  1.0000
  Rh  Rh6       1.0  0.005340594864123362  1.9999999525453949e-10  0.9994222088141825  1.0000
  Rh  Rh7       1.0  0.0022155948282360396  1.9999999525453949e-10  0.9991969231495917  1.0000
  Rh  Rh8       1.0  0.0017219510702139312  2.9999998635776485e-10  0.9998648729099612  1.0000
  Sb  Sb1       1.0  0.004715594892833221  1.9999999525453949e-10  0.999196922903995  1.0000
  Sb  Sb2       1.0  0.004284848691698662  1.9999999525453949e-10  0.9999248506438544  1.0000
  Sb  Sb3       1.0  0.0009655947959374495  1.9999999525453949e-10  0.9996474946702442  1.0000
  Sb  Sb4       1.0  0.007840594749283931  1.9999999525453949e-10  0.9994222085700899  1.0000
  Sb  Sb5       1.0  0.007368789144742977  0.0025000002451798756  0.9997424624032927  1.0000
  Sb  Sb6       1.0  0.004403094907188149  0.0025000002451798756  0.9995348516190389  1.0000
  Sb  Sb7       1.0  0.0012780948713008266  0.0025000002451798756  0.9993095659544482  1.0000
  Sb  Sb8       1.0  0.0006755913167045989  0.0025000002451798756  0.9999855294140162  1.0000
  Mn  Mn9       1.0  0.009140676168144405  0.004999999614717338  0.9998690087595595  1.0000
  Mn  Mn10      1.0  0.005965594835413504  0.005000000052538545  0.99964749472437  1.0000
  Mn  Mn11      1.0  0.002840594978962794  0.005000000052538545  0.9994222090582751  1.0000
  Mn  Mn12      1.0  0.009715595380900806  0.005000000052538545  0.9991969229543604  1.0000
  Mn  Mn13      1.0  0.005803053615521992  0.0074999998598972144  0.9999513545653493  1.0000
  Mn  Mn14      1.0  0.0025698152617677572  0.0074999998598972144  0.9997648367264689  1.0000
  Mn  Mn15      1.0  0.00940309503638251  0.0074999998598972144  0.9995348516724126  1.0000
  Mn  Mn16      1.0  0.0062780951799318  0.0074999998598972144  0.9993095660063177  1.0000
  Rh  Rh9       1.0  0.004797185438258968  0.0074999998598972144  0.9997648831478164  1.0000
  Rh  Rh10      1.0  0.0019030948425909687  0.0074999998598972144  0.9995348518646356  1.0000
  Rh  Rh11      1.0  0.008778095065092369  0.0074999998598972144  0.9993095657622251  1.0000
  Rh  Rh12      1.0  0.008183583527496189  0.007499998984254801  0.9999517622275514  1.0000
  Rh  Rh13      1.0  0.008465594720574073  0.005000000052538545  0.9996474944802775  1.0000
  Rh  Rh14      1.0  0.005340594864123362  0.005000000052538545  0.9994222088141825  1.0000
  Rh  Rh15      1.0  0.0022155948282360396  0.005000000052538545  0.9991969231495917  1.0000
  Rh  Rh16      1.0  0.0017219510702139312  0.005000000052538545  0.9998648729099612  1.0000
  Sb  Sb9       1.0  0.004715594892833221  0.005000000052538545  0.999196922903995  1.0000
  Sb  Sb10      1.0  0.004284848691698662  0.005000000052538545  0.9999248506438544  1.0000
  Sb  Sb11      1.0  0.0009655947959374495  0.005000000052538545  0.9996474946702442  1.0000
  Sb  Sb12      1.0  0.007840594749283931  0.005000000052538545  0.9994222085700899  1.0000
  Sb  Sb13      1.0  0.007368789144742977  0.0074999998598972144  0.9997424624032927  1.0000
  Sb  Sb14      1.0  0.004403094907188149  0.0074999998598972144  0.9995348516190389  1.0000
  Sb  Sb15      1.0  0.0012780948713008266  0.0074999998598972144  0.9993095659544482  1.0000
  Sb  Sb16      1.0  0.0006755913167045989  0.0074999998598972144  0.9999855294140162  1.0000
