data_image0
_chemical_formula_structural       COCa12Ga12Ca12Ga12
_chemical_formula_sum              "C1 O1 Ca24 Ga24"
_cell_length_a       8.984782218933105
_cell_length_b       14.367044460076917
_cell_length_c       107.32536315917969
_cell_angle_alpha    54.74272287098418
_cell_angle_beta     90.0
_cell_angle_gamma    90.0

_space_group_name_H-M_alt    "P 1"
_space_group_IT_number       1

loop_
  _space_group_symop_operation_xyz
  'x, y, z'

loop_
  _atom_site_type_symbol
  _atom_site_label
  _atom_site_symmetry_multiplicity
  _atom_site_fract_x
  _atom_site_fract_y
  _atom_site_fract_z
  _atom_site_occupancy
  C   C1        1.0  0.0037500004477919917  0.003763243059309599  0.9996588783309046  1.0000
  O   O1        1.0  0.0037500004477919917  0.003763243059309599  0.9997706875469261  1.0000
  Ca  Ca1       1.0  0.0012500030516194973  0.004622616471603172  0.99888282943136  1.0000
  Ca  Ca2       1.0  0.0012500036735528185  0.0013305384725400458  0.999255460415029  1.0000
  Ca  Ca3       1.0  0.0012500030516194973  0.007955949910783602  0.9984964097246709  1.0000
  Ca  Ca4       1.0  0.003750002935525277  0.002265702162532364  0.9989160040386591  1.0000
  Ca  Ca5       1.0  0.0037499900822366345  0.008868091063727742  0.9993147353445913  1.0000
  Ca  Ca6       1.0  0.003750002935525277  0.005599035919254078  0.9985295843074327  1.0000
  Ca  Ca7       1.0  0.0012500030516194973  0.0012892832705787077  0.9986896195829884  1.0000
  Ca  Ca8       1.0  0.0012500030516194973  0.007955949910783602  0.9990760392613285  1.0000
  Ca  Ca9       1.0  0.0012500004602306579  0.004615487034662299  0.9994612421578595  1.0000
  Ca  Ca10      1.0  0.0037500016916586346  0.002244111419140271  0.9994886660479653  1.0000
  Ca  Ca11      1.0  0.003750002935525277  0.008932369040893222  0.9987227941619385  1.0000
  Ca  Ca12      1.0  0.003750002935525277  0.005599035919254078  0.9991092138440902  1.0000
  Ga  Ga1       1.0  0.0012500030516194973  0.0036712665908970824  0.9986622573656212  1.0000
  Ga  Ga2       1.0  0.0012500030516194973  0.0003379330723313322  0.9990486770784446  1.0000
  Ga  Ga3       1.0  0.0012499947591752116  0.0069883654143177085  0.9994176343528194  1.0000
  Ga  Ga4       1.0  0.003750002935525277  0.003217052360779739  0.9991365766352244  1.0000
  Ga  Ga5       1.0  0.003750005423258563  0.00011628094939954214  0.9994933995688464  1.0000
  Ga  Ga6       1.0  0.003750002935525277  0.006550385799960168  0.9987501569285354  1.0000
  Ga  Ga7       1.0  0.0012500030516194973  0.0003379330723313322  0.998469047541787  1.0000
  Ga  Ga8       1.0  0.0012500030516194973  0.007004600030077511  0.9988554671955898  1.0000
  Ga  Ga9       1.0  0.0012500030516194973  0.0036712665908970824  0.9992418869022788  1.0000
  Ga  Ga10      1.0  0.003750002935525277  0.003217052360779739  0.9985569470985668  1.0000
  Ga  Ga11      1.0  0.003750002935525277  0.00988371892159931  0.9989433667830413  1.0000
  Ga  Ga12      1.0  0.0037499809605479203  0.006409087548926762  0.9993489660551237  1.0000
  Ca  Ca13      1.0  0.006250003234053272  0.004622616471603172  0.99888282943136  1.0000
  Ca  Ca14      1.0  0.0062500040632977  0.0013305384725400458  0.999255460415029  1.0000
  Ca  Ca15      1.0  0.006250003234053272  0.007955949910783602  0.9984964097246709  1.0000
  Ca  Ca16      1.0  0.008750003117959052  0.002265702162532364  0.9989160040386591  1.0000
  Ca  Ca17      1.0  0.008749989850048195  0.008868091063727742  0.9993147353445913  1.0000
  Ca  Ca18      1.0  0.008750003117959052  0.005599035919254078  0.9985295843074327  1.0000
  Ca  Ca19      1.0  0.006250003234053272  0.0012892832705787077  0.9986896195829884  1.0000
  Ca  Ca20      1.0  0.006250003234053272  0.007955949910783602  0.9990760392613285  1.0000
  Ca  Ca21      1.0  0.006250000746319986  0.004615487034662299  0.9994612421578595  1.0000
  Ca  Ca22      1.0  0.008750002288714623  0.002244111419140271  0.9994886660479653  1.0000
  Ca  Ca23      1.0  0.008750003117959052  0.008932369040893222  0.9987227941619385  1.0000
  Ca  Ca24      1.0  0.008750003117959052  0.005599035919254078  0.9991092138440902  1.0000
  Ga  Ga13      1.0  0.006250003234053272  0.0036712665908970824  0.9986622573656212  1.0000
  Ga  Ga14      1.0  0.006250003234053272  0.0003379330723313322  0.9990486770784446  1.0000
  Ga  Ga15      1.0  0.006249994941608986  0.0069883654143177085  0.9994176343528194  1.0000
  Ga  Ga16      1.0  0.008750003117959052  0.003217052360779739  0.9991365766352244  1.0000
  Ga  Ga17      1.0  0.008750005605692338  0.00011628094939954214  0.9994933995688464  1.0000
  Ga  Ga18      1.0  0.008750003117959052  0.006550385799960168  0.9987501569285354  1.0000
  Ga  Ga19      1.0  0.006250003234053272  0.0003379330723313322  0.998469047541787  1.0000
  Ga  Ga20      1.0  0.006250003234053272  0.007004600030077511  0.9988554671955898  1.0000
  Ga  Ga21      1.0  0.006250003234053272  0.0036712665908970824  0.9992418869022788  1.0000
  Ga  Ga22      1.0  0.008750003117959052  0.003217052360779739  0.9985569470985668  1.0000
  Ga  Ga23      1.0  0.008750003117959052  0.00988371892159931  0.9989433667830413  1.0000
  Ga  Ga24      1.0  0.00874998155760391  0.006409087548926762  0.9993489660551237  1.0000
