data_image0
_chemical_formula_structural       COFe9Se12
_chemical_formula_sum              "C1 O1 Fe9 Se12"
_cell_length_a       6.952178412221049
_cell_length_b       6.31757340244432
_cell_length_c       99.28099060058594
_cell_angle_alpha    84.80647150813141
_cell_angle_beta     88.33496032934693
_cell_angle_gamma    103.9064678779685

_space_group_name_H-M_alt    "P 1"
_space_group_IT_number       1

loop_
  _space_group_symop_operation_xyz
  'x, y, z'

loop_
  _atom_site_type_symbol
  _atom_site_label
  _atom_site_symmetry_multiplicity
  _atom_site_fract_x
  _atom_site_fract_y
  _atom_site_fract_z
  _atom_site_occupancy
  C   C1        1.0  0.009332128529600041  0.0036697693602872465  2.7367949759061095e-05  1.0000
  O   O1        1.0  0.009332128529600041  0.0036697693602872465  0.00014823725460888848  1.0000
  Fe  Fe1       1.0  0.00828524382593513  0.006297839615398893  0.9994596050740052  1.0000
  Fe  Fe2       1.0  0.00982283966900139  0.00048391756859148655  0.9993066359884653  1.0000
  Fe  Fe3       1.0  0.004020375580234275  0.0002935794699710901  0.9993444559680196  1.0000
  Fe  Fe4       1.0  0.0011283013903396048  0.008107932081924089  0.9997389013756938  1.0000
  Fe  Fe5       1.0  0.002550111972133896  0.0023020994231491365  0.9995747546053945  1.0000
  Fe  Fe6       1.0  0.006747647982868871  0.002111761240333715  0.9996125744141278  1.0000
  Fe  Fe7       1.0  0.0034995313385236928  0.009681686281489691  0.999937112206408  1.0000
  Fe  Fe8       1.0  0.0052786571723335155  0.0041240843764541865  0.9998320918491662  1.0000
  Fe  Fe9       1.0  0.009467221411307217  0.003955040088976047  0.9998519473557043  1.0000
  Se  Se1       1.0  0.006393326569078084  0.007888238922756106  0.9992951485192074  1.0000
  Se  Se2       1.0  0.0074498878509735005  0.0028892580551005223  0.9993559431871617  1.0000
  Se  Se3       1.0  0.001198237608814601  0.007420934544531267  0.999313212570202  1.0000
  Se  Se4       1.0  0.0026449772645242803  0.0033565624074984595  0.9993378793064971  1.0000
  Se  Se5       1.0  0.009120599248107373  0.009706420878649154  0.9995632669636845  1.0000
  Se  Se6       1.0  0.00017716068962072564  0.004707439905998388  0.9996240618030223  1.0000
  Se  Se7       1.0  0.003925510287843891  0.009239116500424313  0.9995813313148607  1.0000
  Se  Se8       1.0  0.00537224994355357  0.005174744363391506  0.9996059977509741  1.0000
  Se  Se9       1.0  0.0016872259800893932  0.0015885466585826994  0.9998254575115032  1.0000
  Se  Se10      1.0  0.0027605981400521014  0.006051190496727463  0.9999124664124837  1.0000
  Se  Se11      1.0  0.00661954733412586  0.0010039392537298211  0.9998580433597315  1.0000
  Se  Se12      1.0  0.008003783370170629  0.006685708087989189  0.9998961831568874  1.0000
