data_image0
_chemical_formula_structural       COGa9Ag18Ga9Ag18
_chemical_formula_sum              "C1 O1 Ga18 Ag36"
_cell_length_a       5.917657375335693
_cell_length_b       21.067373253573646
_cell_length_c       101.85087585449219
_cell_angle_alpha    79.1066055484624
_cell_angle_beta     90.0
_cell_angle_gamma    90.0

_space_group_name_H-M_alt    "P 1"
_space_group_IT_number       1

loop_
  _space_group_symop_operation_xyz
  'x, y, z'

loop_
  _atom_site_type_symbol
  _atom_site_label
  _atom_site_symmetry_multiplicity
  _atom_site_fract_x
  _atom_site_fract_y
  _atom_site_fract_z
  _atom_site_occupancy
  C   C1        1.0  5.000000084337541e-10  0.0035247517474559847  0.9997880119171605  1.0000
  O   O1        1.0  5.000000084337541e-10  0.0035247517474559847  0.9999058314667522  1.0000
  Ga  Ga1       1.0  0.009999999017947053  0.007770939317635194  0.9996825597881605  1.0000
  Ga  Ga2       1.0  1.4000000236145115e-09  0.004475558959341027  0.9994249597030317  1.0000
  Ga  Ga3       1.0  0.0  0.0011246986014993169  0.9991727657442548  1.0000
  Ga  Ga4       1.0  0.0  0.005569142961509869  0.9989990323356445  1.0000
  Ga  Ga5       1.0  9.000000151807573e-10  0.002246638315587407  0.9995315315752396  1.0000
  Ga  Ga6       1.0  0.0  0.008902476073954538  0.9992596324679975  1.0000
  Ga  Ga7       1.0  0.0024999999118670434  0.0066802537588950515  0.9993464999091005  1.0000
  Ga  Ga8       1.0  0.0024999999118670434  0.0033469206464503826  0.9990858991915327  1.0000
  Ga  Ga9       1.0  0.0024999992823459233  0.009986412523617415  0.9996096303004204  1.0000
  Ag  Ag1       1.0  0.0  0.007698692878076187  0.999187256051949  1.0000
  Ag  Ag2       1.0  0.0  0.004368290622070728  0.9996869306081566  1.0000
  Ag  Ag3       1.0  0.009999999647468174  0.0010349367112776485  0.9994357471031007  1.0000
  Ag  Ag4       1.0  0.009999999647468174  0.006664186989729899  0.9995769734326427  1.0000
  Ag  Ag5       1.0  0.0  0.0033469206464503826  0.9993247642875626  1.0000
  Ag  Ag6       1.0  0.0  1.3587500242161202e-05  0.9990641635713146  1.0000
  Ag  Ag7       1.0  0.0  0.0056618149998584775  0.9992668777783218  1.0000
  Ag  Ag8       1.0  0.0  0.0023284818874138085  0.9990062773533613  1.0000
  Ag  Ag9       1.0  0.009999999647468174  0.008998314863429955  0.9995302828298128  1.0000
  Ag  Ag10      1.0  0.0024999999118670434  0.004550417527402564  0.9991799886144508  1.0000
  Ag  Ag11      1.0  0.0024999999118670434  0.0012344154716052117  0.9996703202872732  1.0000
  Ag  Ag12      1.0  0.0024999988102050834  0.007911606020934806  0.9994304708903569  1.0000
  Ag  Ag13      1.0  0.0024999999118670434  0.0066802537588950515  0.9990642308908727  1.0000
  Ag  Ag14      1.0  0.0025000006987684433  0.0033403159553421664  0.9995787856684983  1.0000
  Ag  Ag15      1.0  0.0024999999118670434  1.3587500242161202e-05  0.9993248314317009  1.0000
  Ag  Ag16      1.0  0.0024999999118670434  0.008810090350532101  0.9990134776480412  1.0000
  Ag  Ag17      1.0  0.0024999984954445233  0.005492262902026204  0.9995335744769764  1.0000
  Ag  Ag18      1.0  0.0024999999118670434  0.0021434239455704824  0.9992740781945886  1.0000
  Ga  Ga10      1.0  0.004999999508973526  0.007770939317635194  0.9996825597881605  1.0000
  Ga  Ga11      1.0  0.005000001397536887  0.004475558959341027  0.9994249597030317  1.0000
  Ga  Ga12      1.0  0.004999999823734087  0.0011246986014993169  0.9991727657442548  1.0000
  Ga  Ga13      1.0  0.004999999823734087  0.005569142961509869  0.9989990323356445  1.0000
  Ga  Ga14      1.0  0.0050000007680157665  0.002246638315587407  0.9995315315752396  1.0000
  Ga  Ga15      1.0  0.004999999823734087  0.008902476073954538  0.9992596324679975  1.0000
  Ga  Ga16      1.0  0.00750000005036169  0.0066802537588950515  0.9993464999091005  1.0000
  Ga  Ga17      1.0  0.00750000005036169  0.0033469206464503826  0.9990858991915327  1.0000
  Ga  Ga18      1.0  0.00749999942084057  0.009986412523617415  0.9996096303004204  1.0000
  Ag  Ag19      1.0  0.004999999823734087  0.007698692878076187  0.999187256051949  1.0000
  Ag  Ag20      1.0  0.004999999823734087  0.004368290622070728  0.9996869306081566  1.0000
  Ag  Ag21      1.0  0.004999999823734087  0.0010349367112776485  0.9994357471031007  1.0000
  Ag  Ag22      1.0  0.004999999508973526  0.006664186989729899  0.9995769734326427  1.0000
  Ag  Ag23      1.0  0.004999999823734087  0.0033469206464503826  0.9993247642875626  1.0000
  Ag  Ag24      1.0  0.004999999823734087  1.3587500242161202e-05  0.9990641635713146  1.0000
  Ag  Ag25      1.0  0.004999999823734087  0.0056618149998584775  0.9992668777783218  1.0000
  Ag  Ag26      1.0  0.004999999823734087  0.0023284818874138085  0.9990062773533613  1.0000
  Ag  Ag27      1.0  0.004999999508973526  0.008998314863429955  0.9995302828298128  1.0000
  Ag  Ag28      1.0  0.00750000005036169  0.004550417527402564  0.9991799886144508  1.0000
  Ag  Ag29      1.0  0.00750000005036169  0.0012344154716052117  0.9996703202872732  1.0000
  Ag  Ag30      1.0  0.00749999879131945  0.007911606020934806  0.9994304708903569  1.0000
  Ag  Ag31      1.0  0.00750000005036169  0.0066802537588950515  0.9990642308908727  1.0000
  Ag  Ag32      1.0  0.0075000006798828095  0.0033403159553421664  0.9995787856684983  1.0000
  Ag  Ag33      1.0  0.00750000005036169  1.3587500242161202e-05  0.9993248314317009  1.0000
  Ag  Ag34      1.0  0.00750000005036169  0.008810090350532101  0.9990134776480412  1.0000
  Ag  Ag35      1.0  0.00749999816179833  0.005492262902026204  0.9995335744769764  1.0000
  Ag  Ag36      1.0  0.00750000005036169  0.0021434239455704824  0.9992740781945886  1.0000
