data_image0
_chemical_formula_structural       HAl6Pd4Al6Pd4Al6Pd4Al6Pd4
_chemical_formula_sum              "H1 Al24 Pd16"
_cell_length_a       6.767815742291373
_cell_length_b       8.534599907828724
_cell_length_c       110.60689544677734
_cell_angle_alpha    71.62323772779126
_cell_angle_beta     101.82176948439539
_cell_angle_gamma    71.62323579502144

_space_group_name_H-M_alt    "P 1"
_space_group_IT_number       1

loop_
  _space_group_symop_operation_xyz
  'x, y, z'

loop_
  _atom_site_type_symbol
  _atom_site_label
  _atom_site_symmetry_multiplicity
  _atom_site_fract_x
  _atom_site_fract_y
  _atom_site_fract_z
  _atom_site_occupancy
  H   H1        1.0  0.009220121731724928  0.008763916970914243  5.222588150093252e-05  1.0000
  Al  Al1       1.0  0.0004383015237649957  0.002499999905216604  0.999516399074071  1.0000
  Al  Al2       1.0  0.005438301391270422  0.0025000000599182323  0.9998223392427562  1.0000
  Al  Al3       1.0  0.001996792438255902  0.000833333284649967  0.999828958177526  1.0000
  Al  Al4       1.0  0.006996792536856514  0.000833333247072582  0.9995230182965659  1.0000
  Al  Al5       1.0  0.008879810960538772  0.00416666651408755  0.9998157203235225  1.0000
  Al  Al6       1.0  0.0038798108619381598  0.0041666664366778825  0.9995097801500602  1.0000
  Pd  Pd1       1.0  0.009561698904531415  0.0008333331622161066  0.9999779567269247  1.0000
  Pd  Pd2       1.0  0.004561698497803888  0.0008333331878623866  0.9996720165470929  1.0000
  Pd  Pd3       1.0  0.0013149044942632586  0.004166666291560253  0.9996667217825154  1.0000
  Pd  Pd4       1.0  0.0063149045928638705  0.00416666636896992  0.9999726614170904  1.0000
  Al  Al7       1.0  0.0004383015237649957  0.002499999905216604  0.9989045190168513  1.0000
  Al  Al8       1.0  0.005438301391270422  0.0025000000599182323  0.9992104591855365  1.0000
  Al  Al9       1.0  0.001996792438255902  0.000833333284649967  0.9992170781203064  1.0000
  Al  Al10      1.0  0.006996792536856514  0.000833333247072582  0.9989111379699026  1.0000
  Al  Al11      1.0  0.008879810960538772  0.00416666651408755  0.9992038402663028  1.0000
  Al  Al12      1.0  0.0038798108619381598  0.0041666664366778825  0.9988979000928405  1.0000
  Pd  Pd5       1.0  0.009561698904531415  0.0008333331622161066  0.9993660766697051  1.0000
  Pd  Pd6       1.0  0.004561698497803888  0.0008333331878623866  0.9990601364898734  1.0000
  Pd  Pd7       1.0  0.0013149044942632586  0.004166666291560253  0.9990548417252957  1.0000
  Pd  Pd8       1.0  0.0063149045928638705  0.00416666636896992  0.9993607813598707  1.0000
  Al  Al13      1.0  0.0004383015237649957  0.007499999850022819  0.9995163994095237  1.0000
  Al  Al14      1.0  0.005438301391270422  0.007500000004724448  0.9998223390393217  1.0000
  Al  Al15      1.0  0.001996792438255902  0.005833332884495024  0.9998289579824832  1.0000
  Al  Al16      1.0  0.006996792536856514  0.005833333421852903  0.999523018087537  1.0000
  Al  Al17      1.0  0.008879810960538772  0.009166666458893765  0.999815720120088  1.0000
  Al  Al18      1.0  0.0038798108619381598  0.009166666381484098  0.9995097799466257  1.0000
  Pd  Pd9       1.0  0.009561698904531415  0.005833333107022322  0.9999779570623775  1.0000
  Pd  Pd10      1.0  0.004561698497803888  0.005833333132668601  0.9996720168825457  1.0000
  Pd  Pd11      1.0  0.0013149044942632586  0.009166666696314678  0.999666721567892  1.0000
  Pd  Pd12      1.0  0.0063149045928638705  0.009166665853827924  0.999972661763732  1.0000
  Al  Al19      1.0  0.0004383015237649957  0.007499999850022819  0.9989045188134168  1.0000
  Al  Al20      1.0  0.005438301391270422  0.007500000004724448  0.999210458982102  1.0000
  Al  Al21      1.0  0.001996792438255902  0.005833332884495024  0.9992170779252635  1.0000
  Al  Al22      1.0  0.006996792536856514  0.005833333421852903  0.9989111380303173  1.0000
  Al  Al23      1.0  0.008879810960538772  0.009166666458893765  0.9992038400628683  1.0000
  Al  Al24      1.0  0.0038798108619381598  0.009166666381484098  0.998897899889406  1.0000
  Pd  Pd13      1.0  0.009561698904531415  0.005833333107022322  0.9993660764662706  1.0000
  Pd  Pd14      1.0  0.004561698497803888  0.005833333132668601  0.999060136825326  1.0000
  Pd  Pd15      1.0  0.0013149044942632586  0.009166666696314678  0.9990548415106724  1.0000
  Pd  Pd16      1.0  0.0063149045928638705  0.009166665853827924  0.9993607817065123  1.0000
