data_image0
_chemical_formula_structural       HFe24Ge12
_chemical_formula_sum              "H1 Fe24 Ge12"
_cell_length_a       6.419789890475797
_cell_length_b       8.637224427458797
_cell_length_c       101.08320617675781
_cell_angle_alpha    89.77752307368648
_cell_angle_beta     85.50138748072153
_cell_angle_gamma    89.46140139901703

_space_group_name_H-M_alt    "P 1"
_space_group_IT_number       1

loop_
  _space_group_symop_operation_xyz
  'x, y, z'

loop_
  _atom_site_type_symbol
  _atom_site_label
  _atom_site_symmetry_multiplicity
  _atom_site_fract_x
  _atom_site_fract_y
  _atom_site_fract_z
  _atom_site_occupancy
  H   H1        1.0  0.008027480403254865  0.00831796421010428  2.5627835984635097e-05  1.0000
  Fe  Fe1       1.0  0.00031856363742777555  0.00011248905687324495  0.9996108953784731  1.0000
  Fe  Fe2       1.0  0.008651896966466332  0.006779155914761823  0.9993546441792509  1.0000
  Fe  Fe3       1.0  0.004485230375370363  0.0034458224319015816  0.9994827696310994  1.0000
  Fe  Fe4       1.0  0.005735230535589809  0.008445822656191943  0.9992905815433611  1.0000
  Fe  Fe5       1.0  0.0015685636534560816  0.005112489173331702  0.9994187069966594  1.0000
  Fe  Fe6       1.0  0.007401897095956904  0.0017791557983033656  0.9995468325603398  1.0000
  Fe  Fe7       1.0  0.004971341524177076  0.006501378340187279  0.9994934469389031  1.0000
  Fe  Fe8       1.0  0.0008046747875622284  0.0031680448573270376  0.9996215723914764  1.0000
  Fe  Fe9       1.0  0.009138008411621762  0.0098347113917199  0.9993653214857215  1.0000
  Fe  Fe10      1.0  0.0039991192222484945  0.0003902668740695746  0.9994720926180304  1.0000
  Fe  Fe11      1.0  0.009832453195067328  0.007056933920663986  0.9996002183436654  1.0000
  Fe  Fe12      1.0  0.008165786103386417  0.0037236004378037443  0.9993439671647104  1.0000
  Fe  Fe13      1.0  0.007874200865040749  0.009887511068211764  0.9999438732091568  1.0000
  Fe  Fe14      1.0  0.006433966019580056  0.006794212699284402  0.9997252709194827  1.0000
  Fe  Fe15      1.0  0.002182993212902924  0.00349638114574915  0.9998698916382618  1.0000
  Fe  Fe16      1.0  0.003235230454099236  0.008445822656191943  0.9996749578822345  1.0000
  Fe  Fe17      1.0  0.009131653186951392  0.0050375956022139625  0.9998083058610628  1.0000
  Fe  Fe18      1.0  0.005001817812810155  0.0017613127451942237  0.9999096877620727  1.0000
  Fe  Fe19      1.0  0.0032523001162667645  0.006123581498035465  0.9998813831040093  1.0000
  Fe  Fe20      1.0  0.009214335911343548  0.002844074467064016  0.9999764022181012  1.0000
  Fe  Fe21      1.0  0.006409214829285917  0.009650700128230596  0.9997534093577425  1.0000
  Fe  Fe22      1.0  0.0012216748339419253  0.0005790793800753804  0.9998689190752941  1.0000
  Fe  Fe23      1.0  0.006677266024151238  0.007258102534180195  0.9999315547077221  1.0000
  Fe  Fe24      1.0  0.005592246362073365  0.0038716553683214886  0.99972834612851  1.0000
  Ge  Ge1       1.0  0.002054674802262794  0.008168045081617399  0.9994293840096334  1.0000
  Ge  Ge2       1.0  0.007888008537129116  0.004834711598757158  0.9995575095718934  1.0000
  Ge  Ge3       1.0  0.0062213414467759435  0.0015013780080650122  0.9993012586877971  1.0000
  Ge  Ge4       1.0  0.006915786187426249  0.008723600230766487  0.9995361554159622  1.0000
  Ge  Ge5       1.0  0.005249119090434376  0.005390267179233865  0.9992799042368905  1.0000
  Ge  Ge6       1.0  0.001082452574753328  0.0020569334807098143  0.9994080299832644  1.0000
  Ge  Ge7       1.0  0.0001675474525402923  0.00782726261908645  0.9998342098731757  1.0000
  Ge  Ge8       1.0  0.005954002365356491  0.004451731061280709  0.9999688637135083  1.0000
  Ge  Ge9       1.0  0.003721341365285371  0.0015013780080650122  0.9996856353215001  1.0000
  Ge  Ge10      1.0  0.003797470625064644  0.008985984585275665  0.9999537630912985  1.0000
  Ge  Ge11      1.0  0.002749119299981562  0.005390267179233865  0.9996642808691437  1.0000
  Ge  Ge12      1.0  0.008355132369746773  0.0020255047937544532  0.9997721254405867  1.0000
