data_image0
_chemical_formula_structural       Sb16V8CO
_chemical_formula_sum              "Sb16 V8 C1 O1"
_cell_length_a       5.474670374265085
_cell_length_b       8.707331040899133
_cell_length_c       38.244720458984375
_cell_angle_alpha    84.88605976661148
_cell_angle_beta     85.93518938541767
_cell_angle_gamma    97.42666126341653

_space_group_name_H-M_alt    "P 1"
_space_group_IT_number       1

loop_
  _space_group_symop_operation_xyz
  'x, y, z'

loop_
  _atom_site_type_symbol
  _atom_site_label
  _atom_site_symmetry_multiplicity
  _atom_site_fract_x
  _atom_site_fract_y
  _atom_site_fract_z
  _atom_site_occupancy
  Sb  Sb1       1.0  0.004777846569980042  0.0067099448037964745  0.9985937491485685  1.0000
  Sb  Sb2       1.0  0.0014445132610426791  0.0017099450422763194  0.9979018175136728  1.0000
  Sb  Sb3       1.0  0.008111179835095846  0.0067099448037964745  0.9972098861623824  1.0000
  Sb  Sb4       1.0  0.008183830762142848  0.0016968896799520695  0.9992992063323718  1.0000
  Sb  Sb5       1.0  0.009406380621134525  0.005827131440933035  0.9991813556827317  1.0000
  Sb  Sb6       1.0  0.0060190666326977015  0.0007790302404411034  0.9984649232473934  1.0000
  Sb  Sb7       1.0  0.0026857330820619424  0.005779030056161223  0.9977729919352311  1.0000
  Sb  Sb8       1.0  0.0026940863347740224  0.0010947694796581376  0.9998763881093702  1.0000
  Sb  Sb9       1.0  0.0005936193101354265  0.008279029882721336  0.9983766092492402  1.0000
  Sb  Sb10      1.0  0.007260286161125387  0.0032790302296011107  0.9976846775715591  1.0000
  Sb  Sb11      1.0  0.006841657391305513  0.008134054082441946  0.9997655040538664  1.0000
  Sb  Sb12      1.0  0.0039269528960095825  0.0032790302296011107  0.9990685409473719  1.0000
  Sb  Sb13      1.0  0.002577028478204803  0.009220968903199452  0.999246147239057  1.0000
  Sb  Sb14      1.0  0.009352399649043486  0.0042099449772363615  0.9985054351745232  1.0000
  Sb  Sb15      1.0  0.0060190659692002735  0.009209944196756869  0.9978135034861446  1.0000
  Sb  Sb16      1.0  0.005918386433421146  0.004491323444160959  0.9999124880064322  1.0000
  V   V1        1.0  0.007685733222188794  0.008744487039739103  0.9990041279342982  1.0000
  V   V2        1.0  0.004352399595656049  0.003744487386618877  0.9983121963004252  1.0000
  V   V3        1.0  0.0010190661803257163  0.008744487039739103  0.9976202646005631  1.0000
  V   V4        1.0  0.001201066021144853  0.003793358410891026  0.9996618764404434  1.0000
  V   V5        1.0  0.004352399779527488  0.0012444876684586938  0.9972742987896831  1.0000
  V   V6        1.0  0.004468914761562443  0.006325131557623391  0.9993215673530654  1.0000
  V   V7        1.0  0.001019066343867861  0.0012444876684586938  0.9986581621672264  1.0000
  V   V8        1.0  0.007685733041480324  0.00624448721317899  0.9979662304294554  1.0000
  C   C1        1.0  0.002150774532186282  0.007124410633918626  0.9997726381243296  1.0000
  O   O1        1.0  0.002150774532186282  0.007124410633918626  8.640716940350683e-05  1.0000
