data_image0
_chemical_formula_structural       HIn4Si4Pt20In4Si4Pt20
_chemical_formula_sum              "H1 In8 Si8 Pt40"
_cell_length_a       14.902036950793958
_cell_length_b       5.683896541595459
_cell_length_c       104.10337829589844
_cell_angle_alpha    90.0
_cell_angle_beta     79.0058533076468
_cell_angle_gamma    79.0058533076468

_space_group_name_H-M_alt    "P 1"
_space_group_IT_number       1

loop_
  _space_group_symop_operation_xyz
  'x, y, z'

loop_
  _atom_site_type_symbol
  _atom_site_label
  _atom_site_symmetry_multiplicity
  _atom_site_fract_x
  _atom_site_fract_y
  _atom_site_fract_z
  _atom_site_occupancy
  H   H1        1.0  0.008976737566424078  0.00018840377153735467  0.999870143003385  1.0000
  In  In1       1.0  0.0057564526425348825  0.0017967035444749519  0.9994479188453049  1.0000
  In  In2       1.0  0.0007853591372908054  0.0042836977730606966  0.9995976027444241  1.0000
  In  In3       1.0  0.0007564526658993645  0.009296703663874981  0.9993114222822354  1.0000
  In  In4       1.0  0.0057952906410220105  0.006778251408053058  0.9997245442458081  1.0000
  Si  Si1       1.0  0.008239715387304928  0.0005556597483640807  0.9996476979025771  1.0000
  Si  Si2       1.0  0.003233058285828462  0.0030578685288129804  0.9997518797249736  1.0000
  Si  Si3       1.0  0.003284944568318424  0.008032782141283081  0.9995158112310918  1.0000
  Si  Si4       1.0  0.00825645266330331  0.005546703665173007  0.9993796706207774  1.0000
  Pt  Pt1       1.0  0.007233961174537336  0.003559655707461322  0.9995507134373895  1.0000
  Pt  Pt2       1.0  0.0022276584343609352  0.0061680182951297305  0.9996769946990087  1.0000
  Pt  Pt3       1.0  0.0022416467493289968  0.0010541065893895972  0.9994073740440395  1.0000
  Pt  Pt4       1.0  0.007241646531260504  0.00855410712444122  0.9992708776020713  1.0000
  Pt  Pt5       1.0  0.009271258795346116  0.0025393008613161443  0.9994884636394833  1.0000
  Pt  Pt6       1.0  0.0043203322123532865  0.005069121348432189  0.9996298675378149  1.0000
  Pt  Pt7       1.0  0.004271258494203914  3.930071695213891e-05  0.9993519670852725  1.0000
  Pt  Pt8       1.0  0.009210984664061209  0.007523312828961493  0.9997485913213913  1.0000
  Pt  Pt9       1.0  0.007233871870297612  0.008558139956242088  0.99955067579666  1.0000
  Pt  Pt10      1.0  0.0022263941563160144  0.0009551798774321587  0.9996770916211187  1.0000
  Pt  Pt11      1.0  0.0022416467493289968  0.006054106884324705  0.9994073740440395  1.0000
  Pt  Pt12      1.0  0.007241646531260504  0.0035541069933589502  0.9992708776020713  1.0000
  Pt  Pt13      1.0  0.009271258795346116  0.007539300992398413  0.9994884636394833  1.0000
  Pt  Pt14      1.0  0.004320271724307195  0.009960699496837744  0.9996298485772072  1.0000
  Pt  Pt15      1.0  0.004271258494203914  0.005039301011887246  0.9993519670852725  1.0000
  Pt  Pt16      1.0  0.009211475837379687  0.002619002947392734  0.9997485332536171  1.0000
  Pt  Pt17      1.0  0.005783411100296021  0.0017840098260958552  0.999711431887826  1.0000
  Pt  Pt18      1.0  0.0007564526658993645  0.004296703532792711  0.9993114222822354  1.0000
  Pt  Pt19      1.0  0.0007287414824316047  0.009310144380225104  0.9995915597559465  1.0000
  Pt  Pt20      1.0  0.0057564526425348825  0.006796703675557221  0.9994479188453049  1.0000
  In  In5       1.0  0.0057564526425348825  0.0017967035444749519  0.9989019331108753  1.0000
  In  In6       1.0  0.0007564526658993645  0.004296703532792711  0.9990384295581587  1.0000
  In  In7       1.0  0.0007564526658993645  0.009296703663874981  0.9987654365478057  1.0000
  In  In8       1.0  0.0057564526425348825  0.006796703675557221  0.9991749258349519  1.0000
  Si  Si5       1.0  0.00825645266330331  0.000546703534090738  0.9991066776104244  1.0000
  Si  Si6       1.0  0.003256452621766455  0.003046703554859165  0.9992431740594796  1.0000
  Si  Si7       1.0  0.003256452621766455  0.008046703685941434  0.9989701813354028  1.0000
  Si  Si8       1.0  0.00825645266330331  0.005546703665173007  0.9988336848863477  1.0000
  Pt  Pt21      1.0  0.007241646531260504  0.0035541069933589502  0.9989978845917185  1.0000
  Pt  Pt22      1.0  0.0022416467493289968  0.006054106884324705  0.9991343810336866  1.0000
  Pt  Pt23      1.0  0.0022416467493289968  0.0010541065893895972  0.9988613883096099  1.0000
  Pt  Pt24      1.0  0.007241646531260504  0.00855410712444122  0.9987248918676418  1.0000
  Pt  Pt25      1.0  0.009271258795346116  0.0025393008613161443  0.9989424776187774  1.0000
  Pt  Pt26      1.0  0.004271258494203914  0.005039301011887246  0.9990789740749196  1.0000
  Pt  Pt27      1.0  0.004271258494203914  3.930071695213891e-05  0.998805981350843  1.0000
  Pt  Pt28      1.0  0.009271258795346116  0.007539300992398413  0.9992154706291304  1.0000
  Pt  Pt29      1.0  0.007241646531260504  0.00855410712444122  0.9989978845917185  1.0000
  Pt  Pt30      1.0  0.0022416467493289968  0.0010541065893895972  0.9991343810336866  1.0000
  Pt  Pt31      1.0  0.0022416467493289968  0.006054106884324705  0.9988613883096099  1.0000
  Pt  Pt32      1.0  0.007241646531260504  0.0035541069933589502  0.9987248918676418  1.0000
  Pt  Pt33      1.0  0.009271258795346116  0.007539300992398413  0.9989424776187774  1.0000
  Pt  Pt34      1.0  0.004271258494203914  3.930071695213891e-05  0.9990789740749196  1.0000
  Pt  Pt35      1.0  0.004271258494203914  0.005039301011887246  0.998805981350843  1.0000
  Pt  Pt36      1.0  0.009271258795346116  0.0025393008613161443  0.9992154706291304  1.0000
  Pt  Pt37      1.0  0.0057564526425348825  0.0017967035444749519  0.9991749258349519  1.0000
  Pt  Pt38      1.0  0.0007564526658993645  0.004296703532792711  0.9987654365478057  1.0000
  Pt  Pt39      1.0  0.0007564526658993645  0.009296703663874981  0.9990384295581587  1.0000
  Pt  Pt40      1.0  0.0057564526425348825  0.006796703675557221  0.9989019331108753  1.0000
