data_image0
_chemical_formula_structural       COV12Co4V12Co4
_chemical_formula_sum              "C1 O1 V24 Co8"
_cell_length_a       4.655666828155518
_cell_length_b       6.584106922149658
_cell_length_c       109.504638671875
_cell_angle_alpha    90.0
_cell_angle_beta     90.0
_cell_angle_gamma    90.0

_space_group_name_H-M_alt    "P 1"
_space_group_IT_number       1

loop_
  _space_group_symop_operation_xyz
  'x, y, z'

loop_
  _atom_site_type_symbol
  _atom_site_label
  _atom_site_symmetry_multiplicity
  _atom_site_fract_x
  _atom_site_fract_y
  _atom_site_fract_z
  _atom_site_occupancy
  C   C1        1.0  0.009999990814133785  0.008124823515540735  2.3283472881473078e-05  1.0000
  O   O1        1.0  0.009999990814133785  0.008124823515540735  0.0001328675494976936  1.0000
  V   V1        1.0  8.999999688467568e-09  0.006874999864207905  0.9988931042652989  1.0000
  V   V2        1.0  8.999999688467568e-09  0.0018749999886839921  0.9991937357251017  1.0000
  V   V3        1.0  8.999999688467568e-09  0.004375000067896047  0.9993440511828474  1.0000
  V   V4        1.0  8.999999688467568e-09  0.009374999660519762  0.9990434199952003  1.0000
  V   V5        1.0  0.005000008609749171  0.006874999864207905  0.9990434199952003  1.0000
  V   V6        1.0  0.005000008609749171  0.0018749999886839921  0.9993440511828474  1.0000
  V   V7        1.0  0.005000008609749171  0.009374999660519762  0.9988931042652989  1.0000
  V   V8        1.0  0.005000008609749171  0.004375000067896047  0.9991937357251017  1.0000
  V   V9        1.0  0.007500008513729663  0.0031249998868399208  0.9989682619941717  1.0000
  V   V10       1.0  0.007500008513729663  0.00812500004526403  0.9992688931818188  1.0000
  V   V11       1.0  0.0025000089058093184  0.0031249998868399208  0.9989682619941717  1.0000
  V   V12       1.0  0.0025000089058093184  0.00812500004526403  0.9992688931818188  1.0000
  Co  Co1       1.0  0.005000008609749171  0.0056249996831517785  0.9994192091838761  1.0000
  Co  Co2       1.0  0.005000008609749171  0.0006250000198030138  0.9991185777240731  1.0000
  Co  Co3       1.0  8.999999688467568e-09  0.0056249996831517785  0.9991185777240731  1.0000
  Co  Co4       1.0  8.999999688467568e-09  0.0006250000198030138  0.9994192091838761  1.0000
  V   V13       1.0  8.999999688467568e-09  0.006874999864207905  0.9994943671849047  1.0000
  V   V14       1.0  9.529999484435445e-08  0.0019443570741760877  0.9997968748867831  1.0000
  V   V15       1.0  4.629999781229961e-08  0.004451823313952844  0.9999522557082523  1.0000
  V   V16       1.0  8.999999688467568e-09  0.009374999660519762  0.9996446826426504  1.0000
  V   V17       1.0  0.005000008609749171  0.006874999864207905  0.9996446826426504  1.0000
  V   V18       1.0  0.0050000446170644745  0.001798142511703287  0.9999522546196291  1.0000
  V   V19       1.0  0.005000008609749171  0.009374999660519762  0.9994943671849047  1.0000
  V   V20       1.0  0.004999908989510163  0.004305671130973612  0.9997968814185224  1.0000
  V   V21       1.0  0.007500008513729663  0.0031249998868399208  0.9995695246416217  1.0000
  V   V22       1.0  0.007500150942665753  0.008124847279157332  0.9998651119658535  1.0000
  V   V23       1.0  0.0025000089058093184  0.0031249998868399208  0.9995695246416217  1.0000
  V   V24       1.0  0.0024998310696798458  0.008124799186123742  0.9998651119658535  1.0000
  Co  Co5       1.0  0.004999901788047103  0.005439766818176847  0.0  1.0000
  Co  Co6       1.0  0.005000008609749171  0.0006250000198030138  0.999719840643679  1.0000
  Co  Co7       1.0  8.999999688467568e-09  0.0056249996831517785  0.999719840643679  1.0000
  Co  Co8       1.0  1.1769999854580582e-07  0.0008101746073372416  0.9999999934682609  1.0000
