data_image0
_chemical_formula_structural       COIn5Pt15In5Pt15
_chemical_formula_sum              "C1 O1 In10 Pt30"
_cell_length_a       5.7620415687561035
_cell_length_b       9.110587668562504
_cell_length_c       105.28515625
_cell_angle_alpha    75.03678141632845
_cell_angle_beta     90.0
_cell_angle_gamma    71.56505118471486

_space_group_name_H-M_alt    "P 1"
_space_group_IT_number       1

loop_
  _space_group_symop_operation_xyz
  'x, y, z'

loop_
  _atom_site_type_symbol
  _atom_site_label
  _atom_site_symmetry_multiplicity
  _atom_site_fract_x
  _atom_site_fract_y
  _atom_site_fract_z
  _atom_site_occupancy
  C   C1        1.0  0.005214563333991564  0.009797476205415864  0.00012843807273919534  1.0000
  O   O1        1.0  0.005214563333991564  0.009797476205415864  0.0002424144844776266  1.0000
  In  In1       1.0  0.008011647210973439  0.004202524866018399  0.9987712774640501  1.0000
  In  In2       1.0  0.006011647409851706  0.008202524468261866  0.9989053328840455  1.0000
  In  In3       1.0  1.1647198788850795e-05  0.0002025245638936457  0.9993074997379725  1.0000
  In  In4       1.0  0.0040116475165226555  0.0022025246169726427  0.9990393884616691  1.0000
  In  In5       1.0  0.0020116473794579044  0.006202524891102144  0.9991734441497157  1.0000
  Pt  Pt1       1.0  1.16472649616982e-05  0.00520252465459826  0.9989723606703553  1.0000
  Pt  Pt2       1.0  0.008011648170870547  0.009202524704765751  0.9991064163634058  1.0000
  Pt  Pt3       1.0  0.002011647290045443  0.00120252460443077  0.9988383052603678  1.0000
  Pt  Pt4       1.0  0.0060116477429998675  0.003202524629514515  0.9992404719460333  1.0000
  Pt  Pt5       1.0  0.004011647717916122  0.007202524679682006  0.9987042496777403  1.0000
  Pt  Pt6       1.0  0.005011647730457995  0.00520252465459826  0.9989723606703553  1.0000
  Pt  Pt7       1.0  0.0030116477053742496  0.009202524704765751  0.9991064163634058  1.0000
  Pt  Pt8       1.0  0.00701164775554174  0.00120252460443077  0.9988383052603678  1.0000
  Pt  Pt9       1.0  0.0010116472775035705  0.003202524629514515  0.9992404719460333  1.0000
  Pt  Pt10      1.0  0.00901164818341242  0.007202524679682006  0.9987042496777403  1.0000
  Pt  Pt11      1.0  0.009011647335496318  0.0022025246169726427  0.9990393884616691  1.0000
  Pt  Pt12      1.0  0.0070116471984315665  0.006202524891102144  0.9991734441497157  1.0000
  Pt  Pt13      1.0  0.0010116475908780438  0.008202524468261866  0.9989053328840455  1.0000
  Pt  Pt14      1.0  0.0050116475430621536  0.0002025245638936457  0.9993074997379725  1.0000
  Pt  Pt15      1.0  0.0030116473919997774  0.004202524866018399  0.9987712774640501  1.0000
  In  In6       1.0  0.008011647210973439  0.004202524866018399  0.9994415554253936  1.0000
  In  In7       1.0  0.006011647409851706  0.008202524468261866  0.999575610562326  1.0000
  In  In8       1.0  0.009988353069635516  0.00025065187256573  0.9999786416742377  1.0000
  In  In9       1.0  0.004021056270300778  0.00218314204863334  0.9997028675057125  1.0000
  In  In10      1.0  0.0020407995005556944  0.0061435986941316195  0.9998627360513264  1.0000
  Pt  Pt16      1.0  1.16472649616982e-05  0.00520252465459826  0.9996426383486359  1.0000
  Pt  Pt17      1.0  0.008122814713008315  0.009062429299672152  0.9997851202438285  1.0000
  Pt  Pt18      1.0  0.002011647290045443  0.00120252460443077  0.9995085832217112  1.0000
  Pt  Pt19      1.0  0.006023453575582046  0.0032571525475567744  0.9998992703288917  1.0000
  Pt  Pt20      1.0  0.004011647717916122  0.007202524679682006  0.9993745276390837  1.0000
  Pt  Pt21      1.0  0.005011647730457995  0.00520252465459826  0.9996426383486359  1.0000
  Pt  Pt22      1.0  0.003042737554669643  0.009062538593133853  0.9997851161035513  1.0000
  Pt  Pt23      1.0  0.00701164775554174  0.00120252460443077  0.9995085832217112  1.0000
  Pt  Pt24      1.0  0.0009445823926913712  0.003256893871433278  0.99989926365362  1.0000
  Pt  Pt25      1.0  0.00901164818341242  0.007202524679682006  0.9993745276390837  1.0000
  Pt  Pt26      1.0  0.009042752516744312  0.002140365976287461  0.9997072550889345  1.0000
  Pt  Pt27      1.0  0.007025824110591261  0.00617378832538279  0.9998407667140765  1.0000
  Pt  Pt28      1.0  0.0010116475908780438  0.008202524468261866  0.999575610562326  1.0000
  Pt  Pt29      1.0  0.00493115826746567  0.0003642860539976925  0.9999574738555037  1.0000
  Pt  Pt30      1.0  0.0030116473919997774  0.004202524866018399  0.9994415554253936  1.0000
