data_image0
_chemical_formula_structural       COCu12Si4
_chemical_formula_sum              "C1 O1 Cu12 Si4"
_cell_length_a       4.535572632017866
_cell_length_b       4.5355730056762695
_cell_length_c       100.98517608642578
_cell_angle_alpha    90.0
_cell_angle_beta     90.0
_cell_angle_gamma    110.59724778662441

_space_group_name_H-M_alt    "P 1"
_space_group_IT_number       1

loop_
  _space_group_symop_operation_xyz
  'x, y, z'

loop_
  _atom_site_type_symbol
  _atom_site_label
  _atom_site_symmetry_multiplicity
  _atom_site_fract_x
  _atom_site_fract_y
  _atom_site_fract_z
  _atom_site_occupancy
  C   C1        1.0  0.00875000003509754  0.002499999782369357  0.00010759273303798961  1.0000
  O   O1        1.0  0.00875000003509754  0.002499999782369357  0.00022642229578911192  1.0000
  Cu  Cu1       1.0  0.006250000087743849  0.0024999998399042505  0.0  1.0000
  Cu  Cu2       1.0  0.0012500000833566569  0.0074999998322007305  0.9997443092982956  1.0000
  Cu  Cu3       1.0  0.0012500000833566569  0.0074999998322007305  0.0  1.0000
  Cu  Cu4       1.0  0.006250000087743849  0.0024999998399042505  0.9997443092982956  1.0000
  Cu  Cu5       1.0  0.0012500000833566569  0.0024999998650547073  0.9996164639474434  1.0000
  Cu  Cu6       1.0  0.006250000087743849  0.007499999653047255  0.9998721546491478  1.0000
  Cu  Cu7       1.0  0.006250000087743849  0.0024999998399042505  0.9994886185965912  1.0000
  Cu  Cu8       1.0  0.0012500000833566569  0.0074999998322007305  0.9992329278948868  1.0000
  Cu  Cu9       1.0  0.0012500000833566569  0.0074999998322007305  0.9994886185965912  1.0000
  Cu  Cu10      1.0  0.006250000087743849  0.0024999998399042505  0.9992329278948868  1.0000
  Cu  Cu11      1.0  0.0012500000833566569  0.0024999998650547073  0.9991050825440346  1.0000
  Cu  Cu12      1.0  0.006250000087743849  0.007499999653047255  0.999360773245739  1.0000
  Si  Si1       1.0  0.0012500000833566569  0.0024999998650547073  0.9998721546491478  1.0000
  Si  Si2       1.0  0.006250000087743849  0.007499999653047255  0.9996164639474434  1.0000
  Si  Si3       1.0  0.0012500000833566569  0.0024999998650547073  0.999360773245739  1.0000
  Si  Si4       1.0  0.006250000087743849  0.007499999653047255  0.9991050825440346  1.0000
