data_image0
_chemical_formula_structural       COPd8Ti4
_chemical_formula_sum              "C1 O1 Pd8 Ti4"
_cell_length_a       4.637462139129639
_cell_length_b       5.000176394128151
_cell_length_c       98.76083374023438
_cell_angle_alpha    90.10594080651576
_cell_angle_beta     90.0
_cell_angle_gamma    90.0

_space_group_name_H-M_alt    "P 1"
_space_group_IT_number       1

loop_
  _space_group_symop_operation_xyz
  'x, y, z'

loop_
  _atom_site_type_symbol
  _atom_site_label
  _atom_site_symmetry_multiplicity
  _atom_site_fract_x
  _atom_site_fract_y
  _atom_site_fract_z
  _atom_site_occupancy
  C   C1        1.0  0.004999999742942829  0.0017575510306513033  5.121310083145911e-05  1.0000
  O   O1        1.0  0.004999999742942829  0.0017575510306513033  0.00017271900417628228  1.0000
  Pd  Pd1       1.0  0.009999998682582  0.009305909062148105  0.9998259200927019  1.0000
  Pd  Pd2       1.0  0.0050000037594611175  0.007428302847137243  6.953934155561352e-07  1.0000
  Pd  Pd3       1.0  3.550000081198938e-09  0.004270767849895176  0.9999375619745929  1.0000
  Pd  Pd4       1.0  0.0049999985379873425  0.006440460546768907  0.9997285485763974  1.0000
  Pd  Pd5       1.0  1.4500000237245125e-09  0.003634040999895862  0.9994037869920174  1.0000
  Pd  Pd6       1.0  0.0050000013495501445  0.0014911837415585967  0.9996117992400997  1.0000
  Pd  Pd7       1.0  1.4500000237245125e-09  0.008551233049961702  0.9995339659834944  1.0000
  Pd  Pd8       1.0  0.0050000013495501445  0.000694090809333693  0.9993259539643271  1.0000
  Ti  Ti1       1.0  1.4500000237245125e-09  0.00394978004597891  0.9996768887358644  1.0000
  Ti  Ti2       1.0  0.004999999742942829  0.0017511459815253737  0.9998758347379529  1.0000
  Ti  Ti3       1.0  1.4500000237245125e-09  0.008235494003878654  0.99926086454141  1.0000
  Ti  Ti4       1.0  0.0050000013495501445  0.006092637024928782  0.999468876487756  1.0000
