data_image0
_chemical_formula_structural       Rh4Sn2V2Rh4Sn2V2H
_chemical_formula_sum              "Rh8 Sn4 V4 H1"
_cell_length_a       8.205523490905762
_cell_length_b       4.698842199780943
_cell_length_c       98.71550750732422
_cell_angle_alpha    88.23612920639451
_cell_angle_beta     90.0
_cell_angle_gamma    115.88533695828828

_space_group_name_H-M_alt    "P 1"
_space_group_IT_number       1

loop_
  _space_group_symop_operation_xyz
  'x, y, z'

loop_
  _atom_site_type_symbol
  _atom_site_label
  _atom_site_symmetry_multiplicity
  _atom_site_fract_x
  _atom_site_fract_y
  _atom_site_fract_z
  _atom_site_occupancy
  Rh  Rh1       1.0  0.0017187500044086995  0.006875000017634801  0.9995418490975508  1.0000
  Rh  Rh2       1.0  0.004843749910513208  0.009374999823651987  0.999360041927874  1.0000
  Rh  Rh3       1.0  0.0004656859127364387  0.0018632267509692932  0.9998958874770074  1.0000
  Rh  Rh4       1.0  0.003584524575760029  0.004341819451293017  0.9997169610146548  1.0000
  Sn  Sn1       1.0  0.00015625000165326206  0.0006250000066130504  0.9996327526327339  1.0000
  Sn  Sn2       1.0  0.0038864273469661234  0.005544408411529334  0.9999918766301524  1.0000
  V   V1        1.0  0.003281249921534959  0.0031249998677389903  0.9994509454629762  1.0000
  V   V2        1.0  0.002035934863177603  0.008136772252664435  0.9998177500517694  1.0000
  Rh  Rh5       1.0  0.006718749913609123  0.006875000017634801  0.9995418490975508  1.0000
  Rh  Rh6       1.0  0.009843750046712573  0.009374999823651987  0.999360041927874  1.0000
  Rh  Rh7       1.0  0.005465685833505716  0.0018632267509692932  0.9998958874770074  1.0000
  Rh  Rh8       1.0  0.00858452425796151  0.004341819451293017  0.9997169610146548  1.0000
  Sn  Sn3       1.0  0.005156249910853686  0.0006250000066130504  0.9996327526327339  1.0000
  Sn  Sn4       1.0  0.008886427256166547  0.005544408411529334  0.9999918766301524  1.0000
  V   V3        1.0  0.008281250057734325  0.0031249998677389903  0.9994509454629762  1.0000
  V   V4        1.0  0.007035934962245793  0.008136772252664435  0.9998177500517694  1.0000
  H   H1        1.0  0.0012508104280016044  0.004999999612034372  8.770428901003257e-06  1.0000
