data_image0
_chemical_formula_structural       COAs24Rh8
_chemical_formula_sum              "C1 O1 As24 Rh8"
_cell_length_a       7.466900825500488
_cell_length_b       7.466900889798854
_cell_length_c       106.58019256591797
_cell_angle_alpha    90.0
_cell_angle_beta     90.0
_cell_angle_gamma    109.47122046005427

_space_group_name_H-M_alt    "P 1"
_space_group_IT_number       1

loop_
  _space_group_symop_operation_xyz
  'x, y, z'

loop_
  _atom_site_type_symbol
  _atom_site_label
  _atom_site_symmetry_multiplicity
  _atom_site_fract_x
  _atom_site_fract_y
  _atom_site_fract_z
  _atom_site_occupancy
  C   C1        1.0  0.004005639157937831  0.0023437883648939357  0.00011056982769611242  1.0000
  O   O1        1.0  0.004005639157937831  0.0023437883648939357  0.0002231613330198926  1.0000
  As  As1       1.0  0.006930708167538307  0.0004149664337869979  0.9989470926752325  1.0000
  As  As2       1.0  0.0019307080242101482  0.005414966652070015  0.9995191220258175  1.0000
  As  As3       1.0  0.005354985907159122  0.002138101997573772  0.9999050644792912  1.0000
  As  As4       1.0  0.00041496653573797374  0.006930708048512361  0.9993457124175867  1.0000
  As  As5       1.0  0.009861677494912858  0.0033459362803667926  0.9989470926752325  1.0000
  As  As6       1.0  0.004861677808515246  0.008345936068698412  0.9995191220258175  1.0000
  As  As7       1.0  0.009128935052560601  0.0011477089533100194  0.999429542412893  1.0000
  As  As8       1.0  0.004292120246564528  0.005984700672969982  0.0  1.0000
  As  As9       1.0  0.00334593622649798  0.009861677465140758  0.9993457124175867  1.0000
  As  As10      1.0  0.008138796453804406  0.004922159270634789  0.9999050650385382  1.0000
  As  As11      1.0  0.002613194013881265  0.007663450534962197  0.9990309226705388  1.0000
  As  As12      1.0  0.007613194042284282  0.002663450217459627  0.9996029520211237  1.0000
  As  As13      1.0  0.004355323277242486  0.002889838281547394  0.9990625724112916  1.0000
  As  As14      1.0  0.009355323414619235  0.007889838334464489  0.9996346014822531  1.0000
  As  As15      1.0  0.006147709244024216  0.0041289354549447765  0.9994352920305112  1.0000
  As  As16      1.0  0.001149173950009292  0.009127621047219998  0.9999961059636732  1.0000
  As  As17      1.0  0.0059213211641203495  0.007386805782746284  0.9992302324019041  1.0000
  As  As18      1.0  0.0008816638500285816  0.0023693330342035783  0.9998028061793689  1.0000
  As  As19      1.0  0.0076634507091101174  0.002613194058502431  0.999261882142657  1.0000
  As  As20      1.0  0.0027681145853427403  0.007508633106560298  0.9998381349260065  1.0000
  As  As21      1.0  0.0073868062269658915  0.005921321339017561  0.9990625724112916  1.0000
  As  As22      1.0  0.0023868060454915623  0.0009213211538077278  0.9996346014822531  1.0000
  As  As23      1.0  0.0028898382660604706  0.004355323254447068  0.9992302324019041  1.0000
  As  As24      1.0  0.007907306632153749  0.009394956094897877  0.9998027921981958  1.0000
  Rh  Rh1       1.0  0.0051383220713357375  0.0001383221528639621  0.9991464024065979  1.0000
  Rh  Rh2       1.0  0.00013832212170405137  0.005138321899854101  0.9997184314775593  1.0000
  Rh  Rh3       1.0  0.00763832212811137  0.007638322323190862  0.9994324169420786  1.0000
  Rh  Rh4       1.0  0.0026562924087165404  0.0025494747322140987  0.9999910526084744  1.0000
  Rh  Rh5       1.0  0.00013832212170405137  0.005138321899854101  0.9991464024065979  1.0000
  Rh  Rh6       1.0  0.0051383220713357375  0.0001383221528639621  0.9997184314775593  1.0000
  Rh  Rh7       1.0  0.002638322151993043  0.0026383220056882912  0.9994324169420786  1.0000
  Rh  Rh8       1.0  0.007727311853444822  0.007620691405450952  0.9999910470160052  1.0000
