data_image0
_chemical_formula_structural       HPt24Si10
_chemical_formula_sum              "H1 Pt24 Si10"
_cell_length_a       5.602686405181885
_cell_length_b       7.3679146843482535
_cell_length_c       110.88754272460938
_cell_angle_alpha    90.0
_cell_angle_beta     90.0
_cell_angle_gamma    112.34659328198835

_space_group_name_H-M_alt    "P 1"
_space_group_IT_number       1

loop_
  _space_group_symop_operation_xyz
  'x, y, z'

loop_
  _atom_site_type_symbol
  _atom_site_label
  _atom_site_symmetry_multiplicity
  _atom_site_fract_x
  _atom_site_fract_y
  _atom_site_fract_z
  _atom_site_occupancy
  H   H1        1.0  0.009488091733828615  0.0049128609722030965  8.250822350541329e-05  1.0000
  Pt  Pt1       1.0  0.00680790757114134  0.009593780123365151  0.9989302094480851  1.0000
  Pt  Pt2       1.0  0.0018079073384223352  0.009593780123365151  0.999544759101638  1.0000
  Pt  Pt3       1.0  0.00724896668762538  0.0005208924481961213  0.9997927008902832  1.0000
  Pt  Pt4       1.0  0.002335888188634202  0.0006497413583508756  0.999180721404686  1.0000
  Pt  Pt5       1.0  0.005462333985372309  0.006950854989268945  0.9999423737329242  1.0000
  Pt  Pt6       1.0  0.000590985819773827  0.007159936421156692  0.9993302931929349  1.0000
  Pt  Pt7       1.0  0.0005119082278845066  0.0069520199299472575  0.9999425156390918  1.0000
  Pt  Pt8       1.0  0.00559311293796891  0.007159936421156692  0.9993302931929349  1.0000
  Pt  Pt9       1.0  0.0022911323677594084  0.000522129958501391  0.9997926509006105  1.0000
  Pt  Pt10      1.0  0.007338015473057146  0.0006497413583508756  0.999180721404686  1.0000
  Pt  Pt11      1.0  0.0018100347225819956  0.009593780123365151  0.9989302094480851  1.0000
  Pt  Pt12      1.0  0.0068100347890731406  0.009593780123365151  0.999544759101638  1.0000
  Pt  Pt13      1.0  0.003437455613959758  0.0028759080764520512  0.0  1.0000
  Pt  Pt14      1.0  0.008554937221661903  0.0030835848555603885  0.999395187313389  1.0000
  Pt  Pt15      1.0  0.008464275165914227  0.002873701467795079  2.838123351652359e-07  1.0000
  Pt  Pt16      1.0  0.0035528099372389584  0.0030835848555603885  0.999395187313389  1.0000
  Pt  Pt17      1.0  0.007458513155814424  0.005892864174516235  0.9989394814573189  1.0000
  Pt  Pt18      1.0  0.0024585131724372093  0.005892864174516235  0.99955403084211  1.0000
  Pt  Pt19      1.0  0.0030166120604266803  0.007009062116723037  0.9991028536203652  1.0000
  Pt  Pt20      1.0  0.008016612126917825  0.007009062116723037  0.9997174030051563  1.0000
  Pt  Pt21      1.0  0.006129310785219291  0.003234459433325972  0.9996226268859588  1.0000
  Pt  Pt22      1.0  0.0011293108433990432  0.003234459433325972  0.9990080775011676  1.0000
  Pt  Pt23      1.0  0.0016170200295825762  0.004218166009935322  0.9997823127137881  1.0000
  Pt  Pt24      1.0  0.006687409756322693  0.004350657375532774  0.9991714496642139  1.0000
  Si  Si1       1.0  0.006557562992073947  0.004078376408520973  0.9998443133459843  1.0000
  Si  Si2       1.0  0.0014809239426056056  0.0039376856317390975  0.9992236447952395  1.0000
  Si  Si3       1.0  0.0007046460548227169  0.0023851299392872497  0.9995972477204194  1.0000
  Si  Si4       1.0  0.00570464603819993  0.0023851299392872497  0.9989826980668665  1.0000
  Si  Si5       1.0  0.00844127673727122  0.007858391337429832  0.9991282327859047  1.0000
  Si  Si6       1.0  0.0033714207521270126  0.007724583331933874  0.9997520947629435  1.0000
  Si  Si7       1.0  0.002664998961220118  0.006305835918309913  0.9988872857887698  1.0000
  Si  Si8       1.0  0.007664999027711262  0.006305835918309913  0.9995018357110844  1.0000
  Si  Si9       1.0  0.009449820018043209  0.009878239941105147  0.9999747364019834  1.0000
  Si  Si10      1.0  0.004572961395081372  0.00012176065305013155  0.999362740253162  1.0000
