data_image0
_chemical_formula_structural       COSi18Rh30
_chemical_formula_sum              "C1 O1 Si18 Rh30"
_cell_length_a       12.97231540321706
_cell_length_b       5.409372806549072
_cell_length_c       114.20785522460938
_cell_angle_alpha    90.0
_cell_angle_beta     122.0172374761777
_cell_angle_gamma    90.0

_space_group_name_H-M_alt    "P 1"
_space_group_IT_number       1

loop_
  _space_group_symop_operation_xyz
  'x, y, z'

loop_
  _atom_site_type_symbol
  _atom_site_label
  _atom_site_symmetry_multiplicity
  _atom_site_fract_x
  _atom_site_fract_y
  _atom_site_fract_z
  _atom_site_occupancy
  C   C1        1.0  0.004089845988748301  0.009518951025922586  0.00032343015605135715  1.0000
  O   O1        1.0  0.004089845988748301  0.009518951025922586  0.00042850142886748967  1.0000
  Si  Si1       1.0  0.007617575809368814  0.0014431463678502825  0.9993002205510347  1.0000
  Si  Si2       1.0  0.0009509088491698436  0.0014431463678502825  0.9996227892608798  1.0000
  Si  Si3       1.0  0.004284242159923768  0.0014431463678502825  0.9999453579870414  1.0000
  Si  Si4       1.0  0.006588301624980383  0.009518951025922586  0.9994994274641895  1.0000
  Si  Si5       1.0  0.009921634597043188  0.009518951025922586  0.9998219961699553  1.0000
  Si  Si6       1.0  0.0032549679755353375  0.009518951025922586  0.00014456490019615286  1.0000
  Si  Si7       1.0  0.008254968111011785  0.006443146261105931  0.00014456490835453525  1.0000
  Si  Si8       1.0  0.001588301489503935  0.006443146261105931  0.9994994274560312  1.0000
  Si  Si9       1.0  0.00492163480025786  0.006443146261105931  0.9998219961821928  1.0000
  Si  Si10      1.0  0.005950908645955172  0.004518951218751094  0.9996227892486421  1.0000
  Si  Si11      1.0  0.009284242295400216  0.004518951218751094  0.9999453579951998  1.0000
  Si  Si12      1.0  0.0026175755045468063  0.004518951218751094  0.9993002205326784  1.0000
  Si  Si13      1.0  0.008769605203206  0.005481048739928512  0.999561108360495  1.0000
  Si  Si14      1.0  0.002102938412352591  0.005481048739928512  0.9998836768195899  1.0000
  Si  Si15      1.0  0.005436271892452076  0.005481048739928512  0.9992385396343333  1.0000
  Si  Si16      1.0  0.007102938717174598  0.0004810488036307867  0.9998836768379462  1.0000
  Si  Si17      1.0  0.0004362717146392381  0.0004810488036307867  0.9992385393626774  1.0000
  Si  Si18      1.0  0.0037696050677295534  0.0004810488036307867  0.9995611080913885  1.0000
  Rh  Rh1       1.0  0.006745032295417557  0.0038122244094974055  0.9994690936313088  1.0000
  Rh  Rh2       1.0  7.836530346629497e-05  0.0038122244094974055  0.9997916623392415  1.0000
  Rh  Rh3       1.0  0.003411698645972513  0.0038122244094974055  0.00011423106731540521  1.0000
  Rh  Rh4       1.0  0.0074608451389316386  0.0071498730703596185  0.9993305543839155  1.0000
  Rh  Rh5       1.0  0.0007941781787326687  0.0071498730703596185  0.9996531230937605  1.0000
  Rh  Rh6       1.0  0.004127511489486594  0.0071498730703596185  0.9999756918199222  1.0000
  Rh  Rh7       1.0  0.005794177975517996  0.008812224216668899  0.9996531230815229  1.0000
  Rh  Rh8       1.0  0.009127511624963041  0.008812224216668899  0.9999756918280805  1.0000
  Rh  Rh9       1.0  0.0024608448341096314  0.008812224216668899  0.9993305543655592  1.0000
  Rh  Rh10      1.0  0.00841169878144896  0.0021498729188515055  0.00011423107547378758  1.0000
  Rh  Rh11      1.0  0.00174503199059555  0.0021498729188515055  0.9994690936129523  1.0000
  Rh  Rh12      1.0  0.0050783654706950355  0.0021498729188515055  0.999791662349312  1.0000
  Rh  Rh13      1.0  0.009478829149676113  0.0038752504070995444  0.9994238442246248  1.0000
  Rh  Rh14      1.0  0.002812162189477143  0.0038752504070995444  0.9997464129344698  1.0000
  Rh  Rh15      1.0  0.006145495500231068  0.0038752504070995444  6.898166063150544e-05  1.0000
  Rh  Rh16      1.0  0.008060381256735888  0.007086847072757479  0.9996983724963652  1.0000
  Rh  Rh17      1.0  0.0013937146352280382  0.007086847072757479  2.0941226606092216e-05  1.0000
  Rh  Rh18      1.0  0.004727047945981964  0.007086847072757479  0.9993758035092554  1.0000
  Rh  Rh19      1.0  0.00972704842014953  0.008875250214271038  0.9993758035378097  1.0000
  Rh  Rh20      1.0  0.0030603814599505608  0.008875250214271038  0.9996983725086027  1.0000
  Rh  Rh21      1.0  0.0063937147707044855  0.008875250214271038  2.0941234764474606e-05  1.0000
  Rh  Rh22      1.0  0.0078121626636447105  0.0020868470934176766  0.9997464129630241  1.0000
  Rh  Rh23      1.0  0.0011454955341001806  0.0020868470934176766  6.898166267110112e-05  1.0000
  Rh  Rh24      1.0  0.004478829014199666  0.0020868470934176766  0.9994238442164665  1.0000
  Rh  Rh25      1.0  0.007102938717174598  0.005481048739928512  0.9998836768379462  1.0000
  Rh  Rh26      1.0  0.0004362717146392381  0.005481048739928512  0.9992385393626774  1.0000
  Rh  Rh27      1.0  0.0037696050677295534  0.005481048739928512  0.9995611080913885  1.0000
  Rh  Rh28      1.0  0.008769605203206  0.0004810488036307867  0.999561108360495  1.0000
  Rh  Rh29      1.0  0.002102938412352591  0.0004810488036307867  0.9998836768195899  1.0000
  Rh  Rh30      1.0  0.005436271892452076  0.0004810488036307867  0.9992385396343333  1.0000
