data_image0
_chemical_formula_structural       HSb24Rh12
_chemical_formula_sum              "H1 Sb24 Rh12"
_cell_length_a       15.049843635018352
_cell_length_b       7.150531835737561
_cell_length_c       107.978515625
_cell_angle_alpha    68.36903685223199
_cell_angle_beta     71.1354401980526
_cell_angle_gamma    62.282140753712106

_space_group_name_H-M_alt    "P 1"
_space_group_IT_number       1

loop_
  _space_group_symop_operation_xyz
  'x, y, z'

loop_
  _atom_site_type_symbol
  _atom_site_label
  _atom_site_symmetry_multiplicity
  _atom_site_fract_x
  _atom_site_fract_y
  _atom_site_fract_z
  _atom_site_occupancy
  H   H1        1.0  0.009465063745095358  0.0013641330551091928  0.9996240906029704  1.0000
  Sb  Sb1       1.0  0.008221337057763813  0.0082238685873466  0.9988728388815793  1.0000
  Sb  Sb2       1.0  0.004884258135747887  0.008219915570135657  0.9994671516989678  1.0000
  Sb  Sb3       1.0  0.0015546710049401862  0.0082238685873466  0.9991659411301655  1.0000
  Sb  Sb4       1.0  0.006016996896593553  0.006730933765937883  0.9991186631398211  1.0000
  Sb  Sb5       1.0  0.002683663870181739  0.006730933765937883  0.9988255607614194  1.0000
  Sb  Sb6       1.0  0.00933940294200702  0.0067340047452299  0.9994142441666616  1.0000
  Sb  Sb7       1.0  0.008426702627843303  0.001730933735459724  0.9991345421988032  1.0000
  Sb  Sb8       1.0  0.0050933690782698085  0.001730933735459724  0.998841439843978  1.0000
  Sb  Sb9       1.0  0.0017629665191945126  0.0017339216617687048  0.9994279693939817  1.0000
  Sb  Sb10      1.0  0.0006310432145874244  0.0032238684044776466  0.9988887178367819  1.0000
  Sb  Sb11      1.0  0.007153002594417094  0.003292409821711061  0.9994922139772787  1.0000
  Sb  Sb12      1.0  0.003964376240999238  0.0032238684044776466  0.9991818202151836  1.0000
  Sb  Sb13      1.0  0.008609452340570343  0.00624623046130571  0.9991490526024773  1.0000
  Sb  Sb14      1.0  0.005276119314158529  0.00624623046130571  0.9988559502240757  1.0000
  Sb  Sb15      1.0  0.001988104074464324  0.006271221942050731  0.9994425142523551  1.0000
  Sb  Sb16      1.0  0.006988202476728143  0.008753769782519563  0.9994713841286892  1.0000
  Sb  Sb17      1.0  0.0037934473273139304  0.008708571891978774  0.9991652314396579  1.0000
  Sb  Sb18      1.0  0.000460114039321276  0.008708571891978774  0.9988721290730445  1.0000
  Sb  Sb19      1.0  0.008038587373007756  0.0037085717091098194  0.9988583284803646  1.0000
  Sb  Sb20      1.0  0.004648682053948198  0.0038038860554766864  0.9994357426979226  1.0000
  Sb  Sb21      1.0  0.001371921058603288  0.0037085717091098194  0.9991514307407391  1.0000
  Sb  Sb22      1.0  0.009459972717707437  0.0013592855039341696  0.9994251083765924  1.0000
  Sb  Sb23      1.0  0.0061879263334405415  0.0012462302784367564  0.9991352518917703  1.0000
  Sb  Sb24      1.0  0.002854593045447887  0.0012462302784367564  0.9988421495251569  1.0000
  Rh  Rh1       1.0  0.006711747599756338  0.007104449089478413  0.999301113369382  1.0000
  Rh  Rh2       1.0  0.003378414573344524  0.007104449089478413  0.9990080109909802  1.0000
  Rh  Rh3       1.0  0.0001077767951869536  0.007346188435581949  0.9995674407515595  1.0000
  Rh  Rh4       1.0  0.006606466329759805  0.00785035326380607  0.9988522023159413  1.0000
  Rh  Rh5       1.0  0.0033219346635457716  0.007951912584934096  0.9994280787418475  1.0000
  Rh  Rh6       1.0  0.009939799356171617  0.00785035326380607  0.9991453046943429  1.0000
  Rh  Rh7       1.0  0.009958426169699178  0.0028456893130603352  0.9995645335314689  1.0000
  Rh  Rh8       1.0  0.006602959087409948  0.0028503530809371163  0.9992924728924526  1.0000
  Rh  Rh9       1.0  0.0032696255378364524  0.0028503530809371163  0.9989993699856228  1.0000
  Rh  Rh10      1.0  4.157380939215495e-05  0.002104448754218665  0.9991551786631213  1.0000
  Rh  Rh11      1.0  0.006708240385377464  0.002104448754218665  0.9988620763909585  1.0000
  Rh  Rh12      1.0  0.0033882209203662927  0.002102200532826489  0.9994391356854638  1.0000
