data_image0
_chemical_formula_structural       Ga4Cu4Pt8Ga4Cu4Pt8H
_chemical_formula_sum              "Ga8 Cu8 Pt16 H1"
_cell_length_a       5.714162349700928
_cell_length_b       8.84323619340926
_cell_length_c       29.505033493041992
_cell_angle_alpha    70.67399779151827
_cell_angle_beta     90.0
_cell_angle_gamma    49.74715284856237

_space_group_name_H-M_alt    "P 1"
_space_group_IT_number       1

loop_
  _space_group_symop_operation_xyz
  'x, y, z'

loop_
  _atom_site_type_symbol
  _atom_site_label
  _atom_site_symmetry_multiplicity
  _atom_site_fract_x
  _atom_site_fract_y
  _atom_site_fract_z
  _atom_site_occupancy
  Ga  Ga1       1.0  0.0007585176575956947  0.0049165544281788145  0.9986596734405997  1.0000
  Ga  Ga2       1.0  0.008124999743238838  0.0025530772116607752  0.998086957137694  1.0000
  Ga  Ga3       1.0  0.0031889840134765556  0.007492912005221539  0.9992567780585169  1.0000
  Ga  Ga4       1.0  0.005624999625190399  5.307725147642811e-05  0.9975150919324907  1.0000
  Cu  Cu1       1.0  0.008121513422280275  0.007556920873904626  0.999254560734183  1.0000
  Cu  Cu2       1.0  0.005677727903350392  0.005000113701253683  0.9986388279330857  1.0000
  Cu  Cu3       1.0  0.0006249999951662797  5.307725147642811e-05  0.9975150919324907  1.0000
  Cu  Cu4       1.0  0.0031249996650060522  0.0025530772116607752  0.998086957137694  1.0000
  Pt  Pt1       1.0  0.009375000094675678  0.008803077303543051  0.9983728900120284  1.0000
  Pt  Pt2       1.0  0.006874999094981673  0.0063030775730643935  0.9978010247840406  1.0000
  Pt  Pt3       1.0  0.0019628325840264052  0.0011739715697714898  0.9989596217051809  1.0000
  Pt  Pt4       1.0  0.004146565504203177  0.0040265465634480285  0.9994409305176769  1.0000
  Pt  Pt5       1.0  0.004374999364503016  0.008803077303543051  0.9983728900120284  1.0000
  Pt  Pt6       1.0  0.0018749996686887648  0.0063030775730643935  0.9978010247840406  1.0000
  Pt  Pt7       1.0  0.007046931147866554  0.0011738846644522008  0.9989596333555472  1.0000
  Pt  Pt8       1.0  0.009160819162265325  0.004025232034354151  0.9994410977735869  1.0000
  Ga  Ga5       1.0  0.0006249994751160155  0.005053077401550812  0.9963713615757014  1.0000
  Ga  Ga6       1.0  0.008124999743238838  0.0025530772116607752  0.9957994963932826  1.0000
  Ga  Ga7       1.0  0.0031249998228701434  0.007553077132029469  0.9969432268036892  1.0000
  Ga  Ga8       1.0  0.005624999625190399  5.307725147642811e-05  0.9952276306830413  1.0000
  Cu  Cu5       1.0  0.008124999901102927  0.007553077132029469  0.9969432268036892  1.0000
  Cu  Cu6       1.0  0.0056249995533488  0.005053077401550812  0.9963713615757014  1.0000
  Cu  Cu7       1.0  0.0006249999951662797  5.307725147642811e-05  0.9952276306830413  1.0000
  Cu  Cu8       1.0  0.0031249996650060522  0.0025530772116607752  0.9957994963932826  1.0000
  Pt  Pt9       1.0  0.009375000094675678  0.008803077303543051  0.9960854287625791  1.0000
  Pt  Pt10      1.0  0.006874999094981673  0.0063030775730643935  0.9955135635345913  1.0000
  Pt  Pt11      1.0  0.0018749999702360534  0.00130307719328432  0.9966572939141651  1.0000
  Pt  Pt12      1.0  0.004375000011715928  0.0038030772300372303  0.9972291591117736  1.0000
  Pt  Pt13      1.0  0.004374999364503016  0.008803077303543051  0.9960854287625791  1.0000
  Pt  Pt14      1.0  0.0018749996686887648  0.0063030775730643935  0.9955135635345913  1.0000
  Pt  Pt15      1.0  0.006875000048468838  0.00130307719328432  0.9966572939141651  1.0000
  Pt  Pt16      1.0  0.009374999438008836  0.0038030772300372303  0.9972291591117736  1.0000
  H   H1        1.0  0.0007329156774801628  0.00994692281896665  0.99956706559147  1.0000
