data_image0
_chemical_formula_structural       COIn12Ru4
_chemical_formula_sum              "C1 O1 In12 Ru4"
_cell_length_a       7.400650501251221
_cell_length_b       7.135690212249756
_cell_length_c       98.54276275634766
_cell_angle_alpha    90.0
_cell_angle_beta     90.0
_cell_angle_gamma    90.0

_space_group_name_H-M_alt    "P 1"
_space_group_IT_number       1

loop_
  _space_group_symop_operation_xyz
  'x, y, z'

loop_
  _atom_site_type_symbol
  _atom_site_label
  _atom_site_symmetry_multiplicity
  _atom_site_fract_x
  _atom_site_fract_y
  _atom_site_fract_z
  _atom_site_occupancy
  C   C1        1.0  0.007461456480449559  0.0021260498486698  8.363529915190981e-05  1.0000
  O   O1        1.0  0.007461456480449559  0.0021260498486698  0.00020541008994365756  1.0000
  In  In1       1.0  0.0025436558196500077  0.0007492481269329332  0.999387562206778  1.0000
  In  In2       1.0  0.007514688716492328  0.005716000827317646  0.9997415406020828  1.0000
  In  In3       1.0  0.009861401219719556  0.004158433762248133  0.9994977690366212  1.0000
  In  In4       1.0  0.0024418080363226486  0.005658807620965093  0.999754091461674  1.0000
  In  In5       1.0  0.004895856099232431  0.002139177942757945  0.9999068695975294  1.0000
  In  In6       1.0  0.00486140170295798  0.009158433877102315  0.9996394159209557  1.0000
  In  In7       1.0  0.009972942715499693  0.00732483853840794  0.0  1.0000
  In  In8       1.0  8.817514829650965e-05  0.009227308797940637  0.9996344285420276  1.0000
  In  In9       1.0  0.005088174924609974  0.00422730920515092  0.9995027564155494  1.0000
  In  In10      1.0  2.705694920645989e-05  0.0021129216240655378  0.9999088686621534  1.0000
  In  In11      1.0  0.0049648539888658  0.007321436766349071  0.9999980281541075  1.0000
  In  In12      1.0  0.007405920807917945  0.0007492481269329332  0.999387562206778  1.0000
  Ru  Ru1       1.0  0.0024624674857053244  0.009250751580710965  0.9998494407956343  1.0000
  Ru  Ru2       1.0  0.0024747883037165093  0.002291055631974656  0.9996379772597731  1.0000
  Ru  Ru3       1.0  0.0074747883238514435  0.007291055746828838  0.9994992076978038  1.0000
  Ru  Ru4       1.0  0.007470058124400905  0.004627437422930755  0.9999833536285875  1.0000
