data_image0
_chemical_formula_structural       COPt8W4
_chemical_formula_sum              "C1 O1 Pt8 W4"
_cell_length_a       4.845183739448067
_cell_length_b       4.866404979487987
_cell_length_c       102.23046112060547
_cell_angle_alpha    89.99117358112568
_cell_angle_beta     87.40676591210695
_cell_angle_gamma    80.36847471408247

_space_group_name_H-M_alt    "P 1"
_space_group_IT_number       1

loop_
  _space_group_symop_operation_xyz
  'x, y, z'

loop_
  _atom_site_type_symbol
  _atom_site_label
  _atom_site_symmetry_multiplicity
  _atom_site_fract_x
  _atom_site_fract_y
  _atom_site_fract_z
  _atom_site_occupancy
  C   C1        1.0  0.006054103397938933  0.008308805719732814  2.6637469726284103e-05  1.0000
  O   O1        1.0  0.006054103397938933  0.008308805719732814  0.00014401896818097112  1.0000
  Pt  Pt1       1.0  0.0012325517973228314  0.0050137841571079875  0.9995973994802089  1.0000
  Pt  Pt2       1.0  0.008706140169938911  0.008724059495555759  0.9998049624976204  1.0000
  Pt  Pt3       1.0  0.00373255171679261  0.0012637842696973866  0.9994003542778989  1.0000
  Pt  Pt4       1.0  0.006093588378485516  0.0028621931639145615  0.999986912072595  1.0000
  Pt  Pt5       1.0  0.006342826907983861  0.00582873845382509  0.9994689332612597  1.0000
  Pt  Pt6       1.0  0.0038428266527169917  0.009578738050056209  0.999665978755813  1.0000
  Pt  Pt7       1.0  0.00884282684379674  0.0020787384693546625  0.9992718880589154  1.0000
  Pt  Pt8       1.0  0.0011571733715680782  0.003377232789109203  0.9998671419715417  1.0000
  W   W1        1.0  0.0012876892797585725  0.006671261235583464  0.9993361211141106  1.0000
  W   W2        1.0  0.00878768935318945  0.0004212614394091  0.9995331664250309  1.0000
  W   W3        1.0  0.003735025845973514  0.007839185240614945  0.999909102784127  1.0000
  W   W4        1.0  0.006251690332160247  0.004194473038873427  0.9997382742864158  1.0000
