data_image0
_chemical_formula_structural       HAs8Ge4Zn4
_chemical_formula_sum              "H1 As8 Ge4 Zn4"
_cell_length_a       5.8215436935424805
_cell_length_b       7.070300710652475
_cell_length_c       101.29592895507812
_cell_angle_alpha    94.83181987006043
_cell_angle_beta     90.0
_cell_angle_gamma    114.31104000835853

_space_group_name_H-M_alt    "P 1"
_space_group_IT_number       1

loop_
  _space_group_symop_operation_xyz
  'x, y, z'

loop_
  _atom_site_type_symbol
  _atom_site_label
  _atom_site_symmetry_multiplicity
  _atom_site_fract_x
  _atom_site_fract_y
  _atom_site_fract_z
  _atom_site_occupancy
  H   H1        1.0  0.005719078403543657  0.009203887285476347  0.00019588809584918457  1.0000
  As  As1       1.0  0.0028083716543529083  0.0005972305106408043  0.9991257357926164  1.0000
  As  As2       1.0  0.009896150830657391  0.004765167391810066  0.9992542710317596  1.0000
  As  As3       1.0  0.0040615472767372715  0.003095960373557858  0.9995121262666491  1.0000
  As  As4       1.0  0.006982659678677608  0.008930563795586858  0.9993831985221817  1.0000
  As  As5       1.0  0.0011417052141615997  0.007263897399888961  0.9996406615066455  1.0000
  As  As6       1.0  0.008229484217216733  0.0014318341649287504  0.9997691967039165  1.0000
  As  As7       1.0  0.002834820220334973  0.00981943678506051  5.7730549071804575e-05  1.0000
  As  As8       1.0  0.005461751047130139  0.0056823190693514065  0.9998988062697272  1.0000
  Ge  Ge1       1.0  0.00010384910146611084  0.00018056380284494912  0.999576295802038  1.0000
  Ge  Ge2       1.0  0.008853849104353674  0.007680564143975277  0.9991901014974374  1.0000
  Ge  Ge3       1.0  0.00835381238081781  0.00808928937402312  8.931770251517091e-05  1.0000
  Ge  Ge4       1.0  0.007187182273170254  0.004347230481608436  0.999705027167034  1.0000
  Zn  Zn1       1.0  0.005937182331234992  0.0018472305977379094  0.9993188328199211  1.0000
  Zn  Zn2       1.0  0.003020515688871333  0.006013897167630015  0.9994475644784875  1.0000
  Zn  Zn3       1.0  0.0041091064952394505  0.008536114361704103  0.9998422459057188  1.0000
  Zn  Zn4       1.0  0.001887183651229334  0.0022792204806775422  0.9999335642450371  1.0000
