data_image0
_chemical_formula_structural       Ga4Sb4Ga4Sb4Ga4Sb4Ga4Sb4H
_chemical_formula_sum              "Ga16 Sb16 H1"
_cell_length_a       8.873205149708909
_cell_length_b       15.246966594234188
_cell_length_c       34.507179260253906
_cell_angle_alpha    73.08320559558005
_cell_angle_beta     59.99999986866977
_cell_angle_gamma    81.63426849453528

_space_group_name_H-M_alt    "P 1"
_space_group_IT_number       1

loop_
  _space_group_symop_operation_xyz
  'x, y, z'

loop_
  _atom_site_type_symbol
  _atom_site_label
  _atom_site_symmetry_multiplicity
  _atom_site_fract_x
  _atom_site_fract_y
  _atom_site_fract_z
  _atom_site_occupancy
  Ga  Ga1       1.0  0.000864050741836271  0.002449372946044706  0.9982574859109496  1.0000
  Ga  Ga2       1.0  0.0041359495078278855  0.008428232010429273  0.9983803712875571  1.0000
  Ga  Ga3       1.0  0.002670455812946363  0.0001471812003358129  0.9976184161925346  1.0000
  Ga  Ga4       1.0  0.0029733633960909067  0.005427747559410617  0.99806918245196  1.0000
  Sb  Sb1       1.0  0.0010037892246532339  0.004520409631589548  0.9979132845901129  1.0000
  Sb  Sb2       1.0  0.0008779518239239686  0.009852818475969177  0.9985783588959665  1.0000
  Sb  Sb3       1.0  0.0028011179129042974  0.0011053432510821765  0.9987115208471868  1.0000
  Sb  Sb4       1.0  0.002437175927198576  0.007182538688906158  0.9981203370389101  1.0000
  Ga  Ga5       1.0  0.0010037892246532339  0.002647181115421737  0.9968684219798687  1.0000
  Ga  Ga6       1.0  0.0010037892246532339  0.00764718084982583  0.9975112742957258  1.0000
  Ga  Ga7       1.0  0.002670455812946363  0.0001471812003358129  0.9963327122336749  1.0000
  Ga  Ga8       1.0  0.002670455812946363  0.005147181238004462  0.9969755640787133  1.0000
  Sb  Sb5       1.0  0.0010037892246532339  0.004520409631589548  0.9966275801994254  1.0000
  Sb  Sb6       1.0  0.0010037892246532339  0.009520409876754999  0.9972704324496137  1.0000
  Sb  Sb7       1.0  0.002670455812946363  0.0020204096366971624  0.997377574422352  1.0000
  Sb  Sb8       1.0  0.002670455812946363  0.007020409754172274  0.99673472229827  1.0000
  Ga  Ga9       1.0  0.005864051112696621  0.002449372946044706  0.9982574859496335  1.0000
  Ga  Ga10      1.0  0.009135949333305369  0.008428232010429273  0.998380371828189  1.0000
  Ga  Ga11      1.0  0.007670456123208616  0.0001471812003358129  0.9976184162390096  1.0000
  Ga  Ga12      1.0  0.00797336322156839  0.005427747559410617  0.9980691825607639  1.0000
  Sb  Sb9       1.0  0.006003789353121198  0.004520409631589548  0.9979132846599612  1.0000
  Sb  Sb10      1.0  0.00587795183119574  0.009852818475969177  0.9985783594132249  1.0000
  Sb  Sb11      1.0  0.0078011182231665505  0.0011053432510821765  0.998711520461834  1.0000
  Sb  Sb12      1.0  0.007437176237460829  0.007182538688906158  0.9981203370853852  1.0000
  Ga  Ga13      1.0  0.006003789353121198  0.002647181115421737  0.9968684220497172  1.0000
  Ga  Ga14      1.0  0.006003789353121198  0.00764718084982583  0.9975112743655742  1.0000
  Ga  Ga15      1.0  0.007670456123208616  0.0001471812003358129  0.9963327118483222  1.0000
  Ga  Ga16      1.0  0.007670456123208616  0.005147181238004462  0.9969755641251884  1.0000
  Sb  Sb13      1.0  0.006003789353121198  0.004520409631589548  0.9966275802692738  1.0000
  Sb  Sb14      1.0  0.006003789353121198  0.009520409876754999  0.9972704325194621  1.0000
  Sb  Sb15      1.0  0.007670456123208616  0.0020204096366971624  0.997377574468827  1.0000
  Sb  Sb16      1.0  0.007670456123208616  0.007020409754172274  0.996734722344745  1.0000
  H   H1        1.0  0.0009339199226466562  0.0034848912888171273  0.9985200774272451  1.0000
