data_image0
_chemical_formula_structural       COGa12
_chemical_formula_sum              "C1 O1 Ga12"
_cell_length_a       4.634366252880707
_cell_length_b       6.524406790684165
_cell_length_c       106.12765502929688
_cell_angle_alpha    88.43810198311924
_cell_angle_beta     86.32259561829052
_cell_angle_gamma    69.19698762955177

_space_group_name_H-M_alt    "P 1"
_space_group_IT_number       1

loop_
  _space_group_symop_operation_xyz
  'x, y, z'

loop_
  _atom_site_type_symbol
  _atom_site_label
  _atom_site_symmetry_multiplicity
  _atom_site_fract_x
  _atom_site_fract_y
  _atom_site_fract_z
  _atom_site_occupancy
  C   C1        1.0  0.005210803841928178  0.0009833891550296544  6.657817876116352e-05  1.0000
  O   O1        1.0  0.005210803841928178  0.0009833891550296544  0.00017964922240890706  1.0000
  Ga  Ga1       1.0  0.001418487441969186  0.002701057851109311  0.9991848522923482  1.0000
  Ga  Ga2       1.0  0.0046599093616645345  0.004584846935063814  0.9997645630498075  1.0000
  Ga  Ga3       1.0  0.008085153551284011  0.008534391359539897  0.9994685331417534  1.0000
  Ga  Ga4       1.0  0.0016870375657832087  0.009016611025157634  0.9998283430080152  1.0000
  Ga  Ga5       1.0  0.005793540031526248  0.0030134268702204313  0.9995040020143277  1.0000
  Ga  Ga6       1.0  0.009126873229729814  0.007180093312925496  0.9992203212905029  1.0000
  Ga  Ga7       1.0  0.005444198122325563  0.000997020018028404  0.9999030346606144  1.0000
  Ga  Ga8       1.0  0.008581511985362191  0.006884474992828668  0.9996922553612749  1.0000
  Ga  Ga9       1.0  0.0019148456746726624  0.0010511414843980822  0.9994085742316179  1.0000
  Ga  Ga10      1.0  0.004206459999929241  0.0065721059737175475  0.9993731053567876  1.0000
  Ga  Ga11      1.0  0.007875659217811332  0.006479706542803489  0.9999670839867272  1.0000
  Ga  Ga12      1.0  0.0008731267529280657  0.002405439225610298  0.9996567863620767  1.0000
