data_image0
_chemical_formula_structural       COGa12Os6
_chemical_formula_sum              "C1 O1 Ga12 Os6"
_cell_length_a       4.832094012322813
_cell_length_b       5.028180969875484
_cell_length_c       103.99479675292969
_cell_angle_alpha    91.68264806417918
_cell_angle_beta     92.35621948566966
_cell_angle_gamma    103.75301949702875

_space_group_name_H-M_alt    "P 1"
_space_group_IT_number       1

loop_
  _space_group_symop_operation_xyz
  'x, y, z'

loop_
  _atom_site_type_symbol
  _atom_site_label
  _atom_site_symmetry_multiplicity
  _atom_site_fract_x
  _atom_site_fract_y
  _atom_site_fract_z
  _atom_site_occupancy
  C   C1        1.0  0.00226316883754097  0.0015592797928944532  0.00012198496321991853  1.0000
  O   O1        1.0  0.00226316883754097  0.0015592797928944532  0.00023737558557196433  1.0000
  Ga  Ga1       1.0  0.006669351188135407  0.003750000030534867  0.9991421582672145  1.0000
  Ga  Ga2       1.0  0.0011137955102682295  0.000416666632951084  0.999505368640428  1.0000
  Ga  Ga3       1.0  0.005424512788747699  0.007112149993472866  0.9999123904496223  1.0000
  Ga  Ga4       1.0  0.0019034510576913372  0.004871593035539068  0.9990199462202264  1.0000
  Ga  Ga5       1.0  0.006347895409761401  0.0015382594948230941  0.9993831564686337  1.0000
  Ga  Ga6       1.0  0.0008068309770488311  0.008098191852183492  0.9997454358464437  1.0000
  Ga  Ga7       1.0  0.00023678446075624615  0.007371593310352874  0.9992923538243016  1.0000
  Ga  Ga8       1.0  0.004681228837978805  0.004038259483372519  0.9996555643589257  1.0000
  Ga  Ga9       1.0  0.009775693500559702  0.0009938808270969735  2.0085249381373386e-05  1.0000
  Ga  Ga10      1.0  0.0005582402153644268  0.009583333750643186  0.9990513559092767  1.0000
  Ga  Ga11      1.0  0.005002684592586986  0.006249999923662832  0.9994145661573256  1.0000
  Ga  Ga12      1.0  0.009457606727789962  0.0027602142154073174  0.9997735963510005  1.0000
  Os  Os1       1.0  0.0001580435654869774  0.006009433643434045  0.9999680609502747  1.0000
  Os  Os2       1.0  0.001508623326263312  0.002644129810389711  0.9992626575736617  1.0000
  Os  Os3       1.0  0.005953067771709579  0.009310796319292896  0.9996258679613067  1.0000
  Os  Os4       1.0  0.005397512227565042  0.00847746314881219  0.9991718548037061  1.0000
  Os  Os5       1.0  0.009841956506950961  0.005144129703517675  0.99953506505211  1.0000
  Os  Os6       1.0  0.004384607237959676  0.001838419435083947  0.9998902282463454  1.0000
