data_image0
_chemical_formula_structural       HCo12As24
_chemical_formula_sum              "H1 Co12 As24"
_cell_length_a       13.302637398019934
_cell_length_b       5.975691455619187
_cell_length_c       103.82884216308594
_cell_angle_alpha    71.77992177318146
_cell_angle_beta     72.45674260049229
_cell_angle_gamma    101.46562003180776

_space_group_name_H-M_alt    "P 1"
_space_group_IT_number       1

loop_
  _space_group_symop_operation_xyz
  'x, y, z'

loop_
  _atom_site_type_symbol
  _atom_site_label
  _atom_site_symmetry_multiplicity
  _atom_site_fract_x
  _atom_site_fract_y
  _atom_site_fract_z
  _atom_site_occupancy
  H   H1        1.0  0.00019768909427517615  0.004606051833870884  0.9998805572427922  1.0000
  Co  Co1       1.0  0.005639149540918953  0.0007103691257958761  0.9997651851804568  1.0000
  Co  Co2       1.0  0.002170582497368234  0.0003657123360769185  0.9995327917829512  1.0000
  Co  Co3       1.0  0.008854999895309433  0.0003562367541495045  0.9992537370401627  1.0000
  Co  Co4       1.0  0.004135281100329241  0.0057207438559671725  0.9996157795892157  1.0000
  Co  Co5       1.0  0.000758753711275615  0.005792721422469065  0.9993508694444045  1.0000
  Co  Co6       1.0  0.00742542053624455  0.005792721614584281  0.9990793579867691  1.0000
  Co  Co7       1.0  0.0007613376854016296  0.0058918893754448965  0.9997379380377405  1.0000
  Co  Co8       1.0  0.007428721293727482  0.005792721438863453  0.9994868939798316  1.0000
  Co  Co9       1.0  0.004095387997641741  0.005792721467980924  0.9992153823461031  1.0000
  Co  Co10      1.0  0.0021916342158191855  0.0003562367488709479  0.9991182500447885  1.0000
  Co  Co11      1.0  0.008917240622268013  0.00046464805875791283  0.9996472644476514  1.0000
  Co  Co12      1.0  0.005524967667103228  0.0003562369139999684  0.9993897613819949  1.0000
  As  As1       1.0  0.0046451885352943485  0.009506969363562351  0.9996428638726379  1.0000
  As  As2       1.0  0.0013469435576703183  0.009643763763270525  0.9993663064669874  1.0000
  As  As3       1.0  0.008013610305040102  0.009643763489086271  0.9990947955948062  1.0000
  As  As4       1.0  0.0025004934250649163  0.0064483762137134745  0.999586538672101  1.0000
  As  As5       1.0  0.009177412572252384  0.006505195025023931  0.999312471026875  1.0000
  As  As6       1.0  0.0058440789657700385  0.006505194932275692  0.999040959981393  1.0000
  As  As7       1.0  0.0016034442918253316  0.006505194978745009  0.9991028124064227  1.0000
  As  As8       1.0  0.008213709337945598  0.0065425132988690925  0.9996567076125592  1.0000
  As  As9       1.0  0.004936777587911072  0.006505195113705861  0.9993743240371987  1.0000
  As  As10      1.0  0.0037729753206987913  0.009643763311140929  0.9991566480358615  1.0000
  As  As11      1.0  0.0003524357108292796  0.009411127822812249  0.9997006068064158  1.0000
  As  As12      1.0  0.007106308616784532  0.00964376344610178  0.9994281596666375  1.0000
  As  As13      1.0  0.003192596682433424  0.0016597134162484436  0.9996661255102364  1.0000
  As  As14      1.0  0.009802310464185655  0.0015404925538260827  0.9993979577358628  1.0000
  As  As15      1.0  0.006468977478496518  0.0015404926432798917  0.9991264466631277  1.0000
  As  As16      1.0  0.005576987033904487  0.004557252130480471  0.9996780929501551  1.0000
  As  As17      1.0  0.0022549225313149945  0.004608465673865655  0.9994056780499487  1.0000
  As  As18      1.0  0.008921589278684779  0.004608465563759723  0.9991341666007485  1.0000
  As  As19      1.0  0.0031480771183689154  0.004608465443889685  0.9990711613793952  1.0000
  As  As20      1.0  0.009743682132900045  0.0045621052008805694  0.9996213261652271  1.0000
  As  As21      1.0  0.006481410104058053  0.0046084652723967145  0.9993426727406399  1.0000
  As  As22      1.0  0.0006954653957798061  0.0015404928256309996  0.9990634414333391  1.0000
  As  As23      1.0  0.007396838596189692  0.001569261012638801  0.9996022108169078  1.0000
  As  As24      1.0  0.0040287986142663965  0.0015404927404098648  0.9993349527840409  1.0000
