data_image0
_chemical_formula_structural       HMn20Al55
_chemical_formula_sum              "H1 Mn20 Al55"
_cell_length_a       10.455276432307054
_cell_length_b       13.402803070600093
_cell_length_c       112.86348724365234
_cell_angle_alpha    92.23065274014772
_cell_angle_beta     68.04486208778815
_cell_angle_gamma    54.73181121902726

_space_group_name_H-M_alt    "P 1"
_space_group_IT_number       1

loop_
  _space_group_symop_operation_xyz
  'x, y, z'

loop_
  _atom_site_type_symbol
  _atom_site_label
  _atom_site_symmetry_multiplicity
  _atom_site_fract_x
  _atom_site_fract_y
  _atom_site_fract_z
  _atom_site_occupancy
  H   H1        1.0  0.006316955995641727  0.0018000214232251766  0.9997499138271254  1.0000
  Mn  Mn1       1.0  0.009080779018533523  0.0035644978621602362  0.9995177646810958  1.0000
  Mn  Mn2       1.0  0.0011886873373696944  0.005543848779649802  0.9996960993787823  1.0000
  Mn  Mn3       1.0  0.0030807785667119705  0.007564498151370161  0.9989480920652787  1.0000
  Mn  Mn4       1.0  0.005080778494468509  0.009564498295975124  0.9991379830481518  1.0000
  Mn  Mn5       1.0  0.007080778931322366  0.0015644978983114768  0.9993278737045806  1.0000
  Mn  Mn6       1.0  0.004929816704895703  0.0004355022011044349  0.9994079479620949  1.0000
  Mn  Mn7       1.0  0.006835686727950254  0.0023141761161189415  0.9995976849535845  1.0000
  Mn  Mn8       1.0  0.008763154879652334  0.0037662731194413853  0.9997179223470005  1.0000
  Mn  Mn9       1.0  0.0009298173876674578  0.006435502137839764  0.9990281662850546  1.0000
  Mn  Mn10      1.0  0.002929816547087428  0.008435502282444727  0.9992180572945393  1.0000
  Mn  Mn11      1.0  0.0015332439820207155  0.004086047110561484  0.9993126611161715  1.0000
  Mn  Mn12      1.0  0.003533243206699732  0.006086047616678853  0.999502551596954  1.0000
  Mn  Mn13      1.0  0.0056676428596401235  0.007956451347949619  0.9996806664455524  1.0000
  Mn  Mn14      1.0  0.007533243890219365  8.604700210776193e-05  0.9989328794763119  1.0000
  Mn  Mn15      1.0  0.009533243817975903  0.0020860471467127246  0.9991227699310724  1.0000
  Mn  Mn16      1.0  0.002556396980796368  0.0097913972194201  0.9996102986682501  1.0000
  Mn  Mn17      1.0  0.00447735170613505  0.0019139531424972006  0.9988534884447254  1.0000
  Mn  Mn18      1.0  0.006477351793346206  0.00391395310634596  0.9990433794212406  1.0000
  Mn  Mn19      1.0  0.008477350952766177  0.005913953250950923  0.9992332704307251  1.0000
  Mn  Mn20      1.0  0.0004773521098612216  0.007913953395555885  0.9994231610541525  1.0000
  Al  Al1       1.0  0.0002474684945187097  0.009684289769835173  0.9997490433754023  1.0000
  Al  Al2       1.0  0.002005297992556446  0.0020000001446049626  0.9989881295495945  1.0000
  Al  Al3       1.0  0.0040052975361447  0.004000000289209925  0.9991780200176607  1.0000
  Al  Al4       1.0  0.006005297463901238  0.006000000433814888  0.9993679110005339  1.0000
  Al  Al5       1.0  0.007951562278397847  0.008078385144327321  0.999564734582276  1.0000
  Al  Al6       1.0  0.004118822367320369  0.002670535524233478  0.9993602574986616  1.0000
  Al  Al7       1.0  0.006116732979943235  0.004735158180476248  0.9995451697563164  1.0000
  Al  Al8       1.0  0.008015290484392396  0.006948397140755  0.9997545069863243  1.0000
  Al  Al9       1.0  0.00011882184325535426  0.008670535958048366  0.9989804758657177  1.0000
  Al  Al10      1.0  0.0021188221278887246  0.0006705355151956679  0.9991703665272099  1.0000
  Al  Al11      1.0  0.009603746184475603  0.0015163975881627536  0.9996094572973859  1.0000
  Al  Al12      1.0  0.009881176447136408  0.004597263972888305  0.9998130102430185  1.0000
  Al  Al13      1.0  0.0038917737922148365  0.005329464692673966  0.9989957830254447  1.0000
  Al  Al14      1.0  0.005891774038880611  0.0073294644757665225  0.9991856739956015  1.0000
  Al  Al15      1.0  0.007891773198300582  0.009329464620371484  0.9993755644769733  1.0000
  Al  Al16      1.0  0.0006182169844890418  0.004365823369087392  0.9995613950528653  1.0000
  Al  Al17      1.0  0.0027476730735669142  0.006184680492443523  0.9997502052761496  1.0000
  Al  Al18      1.0  0.0046946098519529186  0.008318438058175155  0.9989875095792247  1.0000
  Al  Al19      1.0  0.006694610149283983  0.00031843781867318586  0.9991774002412169  1.0000
  Al  Al20      1.0  0.008694610057108693  0.002318437985872674  0.999367291224885  1.0000
  Al  Al21      1.0  0.00443429463810128  0.00013596420582520847  0.9996571437604236  1.0000
  Al  Al22      1.0  0.00637476767326802  0.002325486754763866  0.9988986924910909  1.0000
  Al  Al23      1.0  0.008374767601024558  0.0043254868993688285  0.9990885829458513  1.0000
  Al  Al24      1.0  0.00037476830869227344  0.006325486682461385  0.9992784741112866  1.0000
  Al  Al25      1.0  0.0023747682364488117  0.008325486827066348  0.9994683650941597  1.0000
  Al  Al26      1.0  0.009635827010262903  0.0036745136790510215  0.9992674574223043  1.0000
  Al  Al27      1.0  0.0016358277179306172  0.005674513462143578  0.9994573480596267  1.0000
  Al  Al28      1.0  0.00377897093738744  0.0075940387761098726  0.9996418063314482  1.0000
  Al  Al29      1.0  0.005635827573443694  0.009674513751353503  0.9988876757500328  1.0000
  Al  Al30      1.0  0.007635827082506364  0.001674513534446059  0.9990775664394311  1.0000
  Al  Al31      1.0  0.005845813178145778  0.008168360520994327  0.9994549588795436  1.0000
  Al  Al32      1.0  0.008053816623288282  0.00015471570745736468  0.9996393255910123  1.0000
  Al  Al33      1.0  0.009845812933874223  0.0021683600871794397  0.9988852862637584  1.0000
  Al  Al34      1.0  0.0018458129384644171  0.004168360231784403  0.9990751769271029  1.0000
  Al  Al35      1.0  0.003845812482052672  0.0061683603763893645  0.9992650679232817  1.0000
  Al  Al36      1.0  0.008164782764659042  0.005831640129728004  0.9994707540650696  1.0000
  Al  Al37      1.0  0.0001996433297585979  0.0077178922033631645  0.9996682560025733  1.0000
  Al  Al38      1.0  0.0021647826317467275  0.009831640057425524  0.9989010814365361  1.0000
  Al  Al39      1.0  0.004164782749691347  0.001831640021274282  0.9990909726337941  1.0000
  Al  Al40      1.0  0.006164782836902504  0.0038316399851230417  0.9992808630821963  1.0000
  Al  Al41      1.0  0.0018810727093500333  0.001925523889318205  0.9995999133919982  1.0000
  Al  Al42      1.0  0.0034486724098341877  0.003958335984424311  0.9997657615571134  1.0000
  Al  Al43      1.0  0.0056135085071452265  0.006064141410927971  0.9990189694299708  1.0000
  Al  Al44      1.0  0.0076135092032383325  0.008064141555532933  0.9992088603862327  1.0000
  Al  Al45      1.0  0.009613508742198743  6.41413047337013e-05  0.9993987510744389  1.0000
  Al  Al46      1.0  0.002397086884053411  0.0019358588059794732  0.9993370705926341  1.0000
  Al  Al47      1.0  0.004482462983211445  0.003895907853090613  0.9995196583866389  1.0000
  Al  Al48      1.0  0.006358480099293142  0.005975580993817849  0.9997357286667703  1.0000
  Al  Al49      1.0  0.008397086217895694  0.007935858878281955  0.9989572892798083  1.0000
  Al  Al50      1.0  0.00039708660665417275  0.009935859022886916  0.999147179929847  1.0000
  Al  Al51      1.0  0.003315985957939587  0.009681562520244696  0.999368530736855  1.0000
  Al  Al52      1.0  0.00515354927446384  0.001712903440614791  0.9995576922507989  1.0000
  Al  Al53      1.0  0.0060540377249978525  0.004042775883131427  0.9997703881184695  1.0000
  Al  Al54      1.0  0.009315985322515334  0.0056815625925471765  0.9989887491166594  1.0000
  Al  Al55      1.0  0.0013159860301830487  0.007681562375639733  0.9991786397539818  1.0000
