data_image0
_chemical_formula_structural       CONa18
_chemical_formula_sum              "C1 O1 Na18"
_cell_length_a       10.14556261417586
_cell_length_b       7.2784469266751906
_cell_length_c       104.511962890625
_cell_angle_alpha    105.27343776433538
_cell_angle_beta     79.10660543089061
_cell_angle_gamma    66.5303979800823

_space_group_name_H-M_alt    "P 1"
_space_group_IT_number       1

loop_
  _space_group_symop_operation_xyz
  'x, y, z'

loop_
  _atom_site_type_symbol
  _atom_site_label
  _atom_site_symmetry_multiplicity
  _atom_site_fract_x
  _atom_site_fract_y
  _atom_site_fract_z
  _atom_site_occupancy
  C   C1        1.0  0.002298813180810452  0.008107807719314878  0.00010656929195000779  1.0000
  O   O1        1.0  0.002298813180810452  0.008107807719314878  0.00022138834598125424  1.0000
  Na  Na1       1.0  0.00027777779811453686  0.001892192039814225  0.9991216676197695  1.0000
  Na  Na2       1.0  0.0036111110130392092  0.001892192039814225  0.9992439715198838  1.0000
  Na  Na3       1.0  0.006944444695366491  0.001892192039814225  0.9989993638430664  1.0000
  Na  Na4       1.0  0.006388889007120988  0.006892191919378777  0.9989178278695069  1.0000
  Na  Na5       1.0  0.009722221941604095  0.006892191919378777  0.999040131774766  1.0000
  Na  Na6       1.0  0.0030555556987157933  0.006892191919378777  0.9991624355394645  1.0000
  Na  Na7       1.0  0.00027777779811453686  0.001892192039814225  0.9994885791881264  1.0000
  Na  Na8       1.0  0.0036111110130392092  0.001892192039814225  0.9996108825179265  1.0000
  Na  Na9       1.0  0.006944444695366491  0.001892192039814225  0.9993662754114233  1.0000
  Na  Na10      1.0  0.006388889007120988  0.006892191919378777  0.9992847394378638  1.0000
  Na  Na11      1.0  0.009722221941604095  0.006892191919378777  0.9994070433431228  1.0000
  Na  Na12      1.0  0.0030555556987157933  0.006892191919378777  0.9995293471078213  1.0000
  Na  Na13      1.0  0.00027777779811453686  0.001892192039814225  0.999855490186169  1.0000
  Na  Na14      1.0  0.0036111110130392092  0.001892192039814225  0.9999777940862833  1.0000
  Na  Na15      1.0  0.006944444695366491  0.001892192039814225  0.999733186409466  1.0000
  Na  Na16      1.0  0.006388889007120988  0.006892191919378777  0.9996516504359064  1.0000
  Na  Na17      1.0  0.009722221941604095  0.006892191919378777  0.9997739543411656  1.0000
  Na  Na18      1.0  0.0030555556987157933  0.006892191919378777  0.9998962581058639  1.0000
