data_image0
_chemical_formula_structural       COSn4Au12Sn4Au12
_chemical_formula_sum              "C1 O1 Sn8 Au24"
_cell_length_a       6.085491180419922
_cell_length_b       13.172577055419524
_cell_length_c       105.26774597167969
_cell_angle_alpha    67.51260289121518
_cell_angle_beta     90.0
_cell_angle_gamma    62.48493487225694

_space_group_name_H-M_alt    "P 1"
_space_group_IT_number       1

loop_
  _space_group_symop_operation_xyz
  'x, y, z'

loop_
  _atom_site_type_symbol
  _atom_site_label
  _atom_site_symmetry_multiplicity
  _atom_site_fract_x
  _atom_site_fract_y
  _atom_site_fract_z
  _atom_site_occupancy
  C   C1        1.0  0.008761353162704107  0.005278692832500482  0.9996829854337032  1.0000
  O   O1        1.0  0.008761353162704107  0.005278692832500482  0.9997969801298305  1.0000
  Sn  Sn1       1.0  0.006980201145274607  0.003333333404019402  0.9988635022403679  1.0000
  Sn  Sn2       1.0  0.006980201215960675  0.008333333333333333  0.9991028086414183  1.0000
  Sn  Sn3       1.0  0.003646867847284308  0.001666666702009701  0.9987039646360649  1.0000
  Sn  Sn4       1.0  0.0036468677412552046  0.006666666808038804  0.9989432710286575  1.0000
  Au  Au1       1.0  0.0035958785039324477  0.004179413838884621  0.999062314160818  1.0000
  Au  Au2       1.0  0.003595879186777862  0.009179413768198552  0.9988230077212362  1.0000
  Au  Au3       1.0  0.008672362545150561  0.0016411720041434477  0.9987051848451571  1.0000
  Au  Au4       1.0  0.008672362792551801  0.0066411717567422075  0.9989444912546654  1.0000
  Au  Au5       1.0  0.008672362304726981  0.004179413838884621  0.999062314160818  1.0000
  Au  Au6       1.0  0.008672363599731742  0.009179413768198552  0.9988230077212362  1.0000
  Au  Au7       1.0  0.007031190141539879  0.0008205860020717239  0.9989837655689338  1.0000
  Au  Au8       1.0  0.007031190123868362  0.005820586019743241  0.9987444591251231  1.0000
  Au  Au9       1.0  0.0019547064474083535  0.0033588281018856556  0.9988622820312757  1.0000
  Au  Au10      1.0  0.0019547068715247656  0.008358827677769243  0.9991015884492418  1.0000
  Au  Au11      1.0  0.001954706340745345  0.0008205860020717239  0.9989837655689338  1.0000
  Au  Au12      1.0  0.0019547063230738286  0.005820586019743241  0.9987444591251231  1.0000
  Sn  Sn5       1.0  0.0067938994398972505  0.0035315293654811313  0.9993500262593601  1.0000
  Sn  Sn6       1.0  0.006402319253583895  0.008927349367421887  0.9995727255555555  1.0000
  Sn  Sn7       1.0  0.003646867847284308  0.001666666702009701  0.9991825774766971  1.0000
  Sn  Sn8       1.0  0.0033531018804804883  0.006988470791159197  0.9995285911029871  1.0000
  Au  Au13      1.0  0.0030123368130347684  0.004939971199102638  0.99951884883324  1.0000
  Au  Au14      1.0  0.0035708486195392105  0.009157115847794007  0.9992946502840401  1.0000
  Au  Au15      1.0  0.008672362545150561  0.0016411720041434477  0.9991837976857894  1.0000
  Au  Au16      1.0  0.008323778588330366  0.007027247047923572  0.9994822586839109  1.0000
  Au  Au17      1.0  0.007781586363366127  0.00494747876647042  0.999518975327676  1.0000
  Au  Au18      1.0  0.008713266523366748  0.009177963290066673  0.9992939622206258  1.0000
  Au  Au19      1.0  0.006464034082509141  0.0012961887336980962  0.9994551536440012  1.0000
  Au  Au20      1.0  0.007031190123868362  0.005820586019743241  0.9992230719657552  1.0000
  Au  Au21      1.0  0.0018403796013316573  0.0034852787638013135  0.9994186279703254  1.0000
  Au  Au22      1.0  0.0012386486427045605  0.009099531441841991  0.9995781226611705  1.0000
  Au  Au23      1.0  0.0016020828383202588  0.0013006818936616878  0.9994550954383619  1.0000
  Au  Au24      1.0  0.0019547063230738286  0.005820586019743241  0.9992230719657552  1.0000
