data_image0
_chemical_formula_structural       HV6Si2V6Si2
_chemical_formula_sum              "H1 V12 Si4"
_cell_length_a       4.712306976318359
_cell_length_b       4.712306976318359
_cell_length_c       37.013851165771484
_cell_angle_alpha    90.0
_cell_angle_beta     90.0
_cell_angle_gamma    90.0

_space_group_name_H-M_alt    "P 1"
_space_group_IT_number       1

loop_
  _space_group_symop_operation_xyz
  'x, y, z'

loop_
  _atom_site_type_symbol
  _atom_site_label
  _atom_site_symmetry_multiplicity
  _atom_site_fract_x
  _atom_site_fract_y
  _atom_site_fract_z
  _atom_site_occupancy
  H   H1        1.0  0.005000002087038565  0.0062500259298730754  0.00033286237734282914  1.0000
  V   V1        1.0  0.010000000221352575  0.006250031858959907  0.0002918612733239417  1.0000
  V   V2        1.0  0.009999997849717843  0.006250006956795216  0.9997098356156097  1.0000
  V   V3        1.0  0.005000000505948743  0.0037499999841891017  0.9993617777287063  1.0000
  V   V4        1.0  0.005000000505948743  0.008750000094865389  0.9993617777287063  1.0000
  V   V5        1.0  0.007571097624934935  0.0012500155421129471  0.9999816707814337  1.0000
  V   V6        1.0  0.002428903386962551  0.001250015640931061  0.9999816711840172  1.0000
  Si  Si1       1.0  3.0000001494741464e-10  0.001250000027669072  0.9993617777287063  1.0000
  Si  Si2       1.0  0.005000002087038565  0.0062500259298730754  0.0  1.0000
  V   V7        1.0  3.0000001494741464e-10  0.006250000237163473  0.999043497726441  1.0000
  V   V8        1.0  3.0000001494741464e-10  0.006250000237163473  0.9984069377219104  1.0000
  V   V9        1.0  0.005000000505948743  0.0037499999841891017  0.9980886577196451  1.0000
  V   V10       1.0  0.005000000505948743  0.008750000094865389  0.9980886577196451  1.0000
  V   V11       1.0  0.007500000758923114  0.001250000027669072  0.9987252177241757  1.0000
  V   V12       1.0  0.0025000004506105992  0.001250000027669072  0.9987252177241757  1.0000
  Si  Si3       1.0  3.0000001494741464e-10  0.001250000027669072  0.9980886577196451  1.0000
  Si  Si4       1.0  0.005000000505948743  0.006250000237163473  0.9987252177241757  1.0000
