data_image0
_chemical_formula_structural       HAl4Cr8Al4Cr8
_chemical_formula_sum              "H1 Al8 Cr16"
_cell_length_a       8.39578628540039
_cell_length_b       4.818452643752023
_cell_length_c       99.38525390625
_cell_angle_alpha    90.0
_cell_angle_beta     90.0
_cell_angle_gamma    115.8238567591782

_space_group_name_H-M_alt    "P 1"
_space_group_IT_number       1

loop_
  _space_group_symop_operation_xyz
  'x, y, z'

loop_
  _atom_site_type_symbol
  _atom_site_label
  _atom_site_symmetry_multiplicity
  _atom_site_fract_x
  _atom_site_fract_y
  _atom_site_fract_z
  _atom_site_occupancy
  H   H1        1.0  0.00046085781730092763  0.005000285619317641  9.20614581337421e-05  1.0000
  Al  Al1       1.0  0.0029606391545022124  0.009999610127140604  0.0  1.0000
  Al  Al2       1.0  0.0004608285462548154  0.009999932215443109  0.9997664260757431  1.0000
  Al  Al3       1.0  0.002960821404892951  6.800000167171881e-08  0.9995562627402541  1.0000
  Al  Al4       1.0  0.0004608213161510469  6.800000167171881e-08  0.9993450696627154  1.0000
  Cr  Cr1       1.0  0.004522876887794653  0.006248110672962607  0.999968085193255  1.0000
  Cr  Cr2       1.0  0.0020344732920350994  0.006295051392718753  0.9997748127459962  1.0000
  Cr  Cr3       1.0  0.003886997612018983  0.003704311370605527  0.999774728183603  1.0000
  Cr  Cr4       1.0  0.0013988389484582424  0.0037524609951237447  0.9999681037849868  1.0000
  Cr  Cr5       1.0  0.0045391788060247336  0.006313497604528802  0.9995562627402541  1.0000
  Cr  Cr6       1.0  0.0020391786895509845  0.006313497604528802  0.9993450696627154  1.0000
  Cr  Cr7       1.0  0.0038824640549356727  0.003686638600172561  0.9993450696627154  1.0000
  Cr  Cr8       1.0  0.0013824639661937693  0.003686638600172561  0.9995562627402541  1.0000
  Al  Al5       1.0  0.007960639137863107  0.009999610127140604  0.0  1.0000
  Al  Al6       1.0  0.0054608285018838635  0.009999932215443109  0.9997664260757431  1.0000
  Al  Al7       1.0  0.007960821582376758  6.800000167171881e-08  0.9995562627402541  1.0000
  Al  Al8       1.0  0.005460821493634855  6.800000167171881e-08  0.9993450696627154  1.0000
  Cr  Cr9       1.0  0.009522876621568942  0.006248110672962607  0.999968085193255  1.0000
  Cr  Cr10      1.0  0.007034473275395993  0.006295051392718753  0.9997748127459962  1.0000
  Cr  Cr11      1.0  0.008886997789502792  0.003704311370605527  0.999774728183603  1.0000
  Cr  Cr12      1.0  0.006398838987282825  0.0037524609951237447  0.9999681037849868  1.0000
  Cr  Cr13      1.0  0.009539178983508543  0.006313497604528802  0.9995562627402541  1.0000
  Cr  Cr14      1.0  0.007039178894766638  0.006313497604528802  0.9993450696627154  1.0000
  Cr  Cr15      1.0  0.008882464232419481  0.003686638600172561  0.9993450696627154  1.0000
  Cr  Cr16      1.0  0.006382464143677577  0.003686638600172561  0.9995562627402541  1.0000
