data_image0
_chemical_formula_structural       Al12W6H
_chemical_formula_sum              "Al12 W6 H1"
_cell_length_a       4.887739462094847
_cell_length_b       8.380459260603805
_cell_length_c       103.52183532714844
_cell_angle_alpha    71.35616296342664
_cell_angle_beta     106.9546846212084
_cell_angle_gamma    73.04531700857328

_space_group_name_H-M_alt    "P 1"
_space_group_IT_number       1

loop_
  _space_group_symop_operation_xyz
  'x, y, z'

loop_
  _atom_site_type_symbol
  _atom_site_label
  _atom_site_symmetry_multiplicity
  _atom_site_fract_x
  _atom_site_fract_y
  _atom_site_fract_z
  _atom_site_occupancy
  Al  Al1       1.0  0.009029903118155902  0.009995304671585433  0.9993395594814676  1.0000
  Al  Al2       1.0  0.0090086356496612  0.005067830223935168  0.9997246508809117  1.0000
  Al  Al3       1.0  0.002400797067951273  0.002485914657287578  0.999677626027568  1.0000
  Al  Al4       1.0  0.0024007970280510854  0.007485914823102103  0.9992728583326405  1.0000
  Al  Al5       1.0  0.007263373844917231  0.008204632176295064  0.9997308378602777  1.0000
  Al  Al6       1.0  0.00734445582307399  0.0033474187831343018  0.9993380390556265  1.0000
  Al  Al7       1.0  0.002400797333212776  0.00668075214064892  0.9996078843049655  1.0000
  Al  Al8       1.0  0.002469163936515288  0.0015581676292144497  0.999993671936379  1.0000
  Al  Al9       1.0  0.008541451771658649  0.0007405648416617215  0.9998097543939488  1.0000
  Al  Al10      1.0  0.009029902669589812  0.005856808890702826  0.9994047402837418  1.0000
  Al  Al11      1.0  0.004086244050964436  0.0016619715368840812  0.9994744821012421  1.0000
  Al  Al12      1.0  0.003277713226392349  0.006256988253102207  0.9999283993598432  1.0000
  W   W1        1.0  0.0007153497629867825  4.69514996964019e-06  0.9996086443407338  1.0000
  W   W2        1.0  0.00928465071362309  0.004795712527227574  0.9999802453233566  1.0000
  W   W3        1.0  0.0057153500679712615  0.004171361773995202  0.9995411834462821  1.0000
  W   W4        1.0  0.00460712953038576  0.009096321540759168  0.9998837413814928  1.0000
  W   W5        1.0  0.005715349827282902  0.008338028406117177  0.9994737218877312  1.0000
  W   W6        1.0  0.0058531225354536654  0.0034268752893048906  0.9998797065298193  1.0000
  H   H1        1.0  0.009126960192135878  0.002956394973296234  0.9999235634817906  1.0000
