data_image0
_chemical_formula_structural       HCa8
_chemical_formula_sum              "H1 Ca8"
_cell_length_a       7.945345401763916
_cell_length_b       5.618207931518555
_cell_length_c       101.78137969970703
_cell_angle_alpha    90.0
_cell_angle_beta     90.0
_cell_angle_gamma    90.0

_space_group_name_H-M_alt    "P 1"
_space_group_IT_number       1

loop_
  _space_group_symop_operation_xyz
  'x, y, z'

loop_
  _atom_site_type_symbol
  _atom_site_label
  _atom_site_symmetry_multiplicity
  _atom_site_fract_x
  _atom_site_fract_y
  _atom_site_fract_z
  _atom_site_occupancy
  H   H1        1.0  0.0037499999718681306  0.007499999628678292  0.00014737455651653373  1.0000
  Ca  Ca1       1.0  0.00124999999062271  0.0024999999867385105  0.9998048428195875  1.0000
  Ca  Ca2       1.0  0.00124999999062271  0.0024999999867385105  0.9994145284587626  1.0000
  Ca  Ca3       1.0  0.0037499999718681306  0.007499999628678292  0.0  1.0000
  Ca  Ca4       1.0  0.0037499999718681306  0.007499999628678292  0.999609685639175  1.0000
  Ca  Ca5       1.0  0.006250000187545794  0.0024999999867385105  0.9998048428195875  1.0000
  Ca  Ca6       1.0  0.006250000187545794  0.0024999999867385105  0.9994145284587626  1.0000
  Ca  Ca7       1.0  0.008750000637655702  0.007499999628678292  0.0  1.0000
  Ca  Ca8       1.0  0.008750000637655702  0.007499999628678292  0.999609685639175  1.0000
