data_image0
_chemical_formula_structural       COV18Ir6V18Ir6
_chemical_formula_sum              "C1 O1 V36 Ir12"
_cell_length_a       4.789687156677246
_cell_length_b       10.71006569752435
_cell_length_c       110.64183807373047
_cell_angle_alpha    71.56505158041733
_cell_angle_beta     90.0
_cell_angle_gamma    90.0

_space_group_name_H-M_alt    "P 1"
_space_group_IT_number       1

loop_
  _space_group_symop_operation_xyz
  'x, y, z'

loop_
  _atom_site_type_symbol
  _atom_site_label
  _atom_site_symmetry_multiplicity
  _atom_site_fract_x
  _atom_site_fract_y
  _atom_site_fract_z
  _atom_site_occupancy
  C   C1        1.0  0.004999999393336905  0.002828618739918707  0.9998508340372074  1.0000
  O   O1        1.0  0.004999999393336905  0.002828618739918707  0.9999592923250271  1.0000
  V   V1        1.0  2.999999773671299e-10  0.007505547057846267  0.9987194443665979  1.0000
  V   V2        1.0  2.999999773671299e-10  0.004172213773399042  0.9991275864808892  1.0000
  V   V3        1.0  2.999999773671299e-10  0.0008388804889518177  0.9989235154538219  1.0000
  V   V4        1.0  2.999999773671299e-10  0.005838880415622655  0.9992296219944228  1.0000
  V   V5        1.0  2.999999773671299e-10  0.0025055471311754302  0.9990255509673555  1.0000
  V   V6        1.0  2.999999773671299e-10  0.009172214066715693  0.9988214798689082  1.0000
  V   V7        1.0  0.005000000171110104  0.007505547057846267  0.9988724976519375  1.0000
  V   V8        1.0  0.005000000171110104  0.004172213773399042  0.9986684266248702  1.0000
  V   V9        1.0  0.005000000171110104  0.0008388804889518177  0.9990765687391615  1.0000
  V   V10       1.0  0.005000000171110104  0.009172214066715693  0.9986684265835686  1.0000
  V   V11       1.0  0.005000000171110104  0.005838880415622655  0.9990765687090831  1.0000
  V   V12       1.0  0.005000000171110104  0.0025055471311754302  0.9988724976820158  1.0000
  V   V13       1.0  0.007500000062221856  0.005005547277833755  0.9988724973920065  1.0000
  V   V14       1.0  0.007500000062221856  0.001672213810063624  0.9986684266399094  1.0000
  V   V15       1.0  0.007500000062221856  0.008338880195635166  0.9990765689690141  1.0000
  V   V16       1.0  0.0025000002799983514  0.005005547277833755  0.9988724973920065  1.0000
  V   V17       1.0  0.0025000002799983514  0.001672213810063624  0.9986684266399094  1.0000
  V   V18       1.0  0.0025000002799983514  0.008338880195635166  0.9990765689690141  1.0000
  Ir  Ir1       1.0  0.005000000171110104  0.006672213920057368  0.9986684263348609  1.0000
  Ir  Ir2       1.0  0.005000000171110104  0.0033388806356101433  0.9990765689878692  1.0000
  Ir  Ir3       1.0  0.005000000171110104  5.547200064741218e-06  0.9988724974267101  1.0000
  Ir  Ir4       1.0  2.999999773671299e-10  0.006672213920057368  0.9989745334442572  1.0000
  Ir  Ir5       1.0  2.999999773671299e-10  0.0033388806356101433  0.9987704618784728  1.0000
  Ir  Ir6       1.0  2.999999773671299e-10  5.547200064741218e-06  0.9991786045361064  1.0000
  V   V19       1.0  2.999999773671299e-10  0.007505547057846267  0.9993316575079564  1.0000
  V   V20       1.0  0.00999999878667381  0.004219898994651312  0.9997281010897044  1.0000
  V   V21       1.0  2.999999773671299e-10  0.0008388804889518177  0.9995357285951805  1.0000
  V   V22       1.0  3.9999998527580487e-10  0.0062235083733691  0.9998094942791909  1.0000
  V   V23       1.0  0.009999999564447009  0.002542650587595381  0.9996385774255859  1.0000
  V   V24       1.0  2.999999773671299e-10  0.009172214066715693  0.9994336930102667  1.0000
  V   V25       1.0  0.005000000171110104  0.007505547057846267  0.999484710793296  1.0000
  V   V26       1.0  0.005000000171110104  0.004172213773399042  0.9992806397662288  1.0000
  V   V27       1.0  0.004999999393336905  0.0009159795956324916  0.9996941578025659  1.0000
  V   V28       1.0  0.005000000171110104  0.009172214066715693  0.9992806397249272  1.0000
  V   V29       1.0  0.005000000171110104  0.005859249423808771  0.9996991314692069  1.0000
  V   V30       1.0  0.005000000171110104  0.0025055471311754302  0.9994847108233744  1.0000
  V   V31       1.0  0.007500000062221856  0.005005547277833755  0.9994847110720821  1.0000
  V   V32       1.0  0.007500000062221856  0.001672213810063624  0.9992806400506264  1.0000
  V   V33       1.0  0.007496524193798881  0.008329030622493022  0.9996839959685081  1.0000
  V   V34       1.0  0.0025000002799983514  0.005005547277833755  0.9994847110720821  1.0000
  V   V35       1.0  0.0025000002799983514  0.001672213810063624  0.9992806400506264  1.0000
  V   V36       1.0  0.002503475759534728  0.008329030622493022  0.9996839959685081  1.0000
  Ir  Ir7       1.0  0.005000000171110104  0.006672213920057368  0.9992806400149364  1.0000
  Ir  Ir8       1.0  0.004999999393336905  0.0033676912970133795  0.9996858207679468  1.0000
  Ir  Ir9       1.0  0.005000000171110104  5.547200064741218e-06  0.9994847111067857  1.0000
  Ir  Ir10      1.0  5.999999547342598e-10  0.006671399233059086  0.9995811844891846  1.0000
  Ir  Ir11      1.0  2.999999773671299e-10  0.0033388806356101433  0.9993826755585485  1.0000
  Ir  Ir12      1.0  0.00999999878667381  0.009994452502178756  0.9997708136568686  1.0000
