data_image0
_chemical_formula_structural       HAl8Ni4Ru4Al8Ni4Ru4Al8Ni4Ru4Al8Ni4Ru4
_chemical_formula_sum              "H1 Al32 Ni16 Ru16"
_cell_length_a       8.397833824157715
_cell_length_b       8.397833824157715
_cell_length_c       105.62899017333984
_cell_angle_alpha    90.0
_cell_angle_beta     90.0
_cell_angle_gamma    90.0

_space_group_name_H-M_alt    "P 1"
_space_group_IT_number       1

loop_
  _space_group_symop_operation_xyz
  'x, y, z'

loop_
  _atom_site_type_symbol
  _atom_site_label
  _atom_site_symmetry_multiplicity
  _atom_site_fract_x
  _atom_site_fract_y
  _atom_site_fract_z
  _atom_site_occupancy
  H   H1        1.0  0.00125000002661608  0.0037499998580475726  0.00011324313635034964  1.0000
  Al  Al1       1.0  4.9999998306214e-11  0.0  0.9993062298361366  1.0000
  Al  Al2       1.0  0.0024999998314314924  0.0024999998314314924  0.9993062298361366  1.0000
  Al  Al3       1.0  0.0024999998314314924  0.0024999998314314924  0.9990251438212943  1.0000
  Al  Al4       1.0  4.9999998306214e-11  0.0  0.9990251438212943  1.0000
  Al  Al5       1.0  2.4999999153107e-10  0.00999999932572597  0.9998731717501252  1.0000
  Al  Al6       1.0  0.0024999998314314924  0.0024999998314314924  0.9998731717501252  1.0000
  Al  Al7       1.0  0.0024999998314314924  0.0024999998314314924  0.9995873155688374  1.0000
  Al  Al8       1.0  4.9999998306214e-11  0.0  0.9995873155688374  1.0000
  Ni  Ni1       1.0  4.9999998306214e-11  0.0024999998314314924  0.9994467729846285  1.0000
  Ni  Ni2       1.0  0.0024999998314314924  0.0  0.9991656869697861  1.0000
  Ni  Ni3       1.0  0.00999999932572597  0.00250000005323216  0.9999932071610963  1.0000
  Ni  Ni4       1.0  0.00250000005323216  9.9999996612428e-11  0.9997263594173652  1.0000
  Ru  Ru1       1.0  0.0024999998314314924  0.0  0.9994467729846285  1.0000
  Ru  Ru2       1.0  4.9999998306214e-11  0.0024999998314314924  0.9991656869697861  1.0000
  Ru  Ru3       1.0  0.0024999998314314924  9.9999996612428e-11  0.0  1.0000
  Ru  Ru4       1.0  4.9999998306214e-11  0.0024999998314314924  0.9997243279985205  1.0000
  Al  Al9       1.0  4.9999998306214e-11  0.004999999662862985  0.9993062298361366  1.0000
  Al  Al10      1.0  0.0024999998314314924  0.007499999716095145  0.9993062298361366  1.0000
  Al  Al11      1.0  0.0024999998314314924  0.007499999716095145  0.9990251438212943  1.0000
  Al  Al12      1.0  4.9999998306214e-11  0.004999999662862985  0.9990251438212943  1.0000
  Al  Al13      1.0  2.4999999153107e-10  0.004999999662862985  0.9998731717501252  1.0000
  Al  Al14      1.0  0.0024999998314314924  0.007499999716095145  0.9998731717501252  1.0000
  Al  Al15      1.0  0.0024999998314314924  0.007499999716095145  0.9995873155688374  1.0000
  Al  Al16      1.0  4.9999998306214e-11  0.004999999662862985  0.9995873155688374  1.0000
  Ni  Ni5       1.0  4.9999998306214e-11  0.007499999716095145  0.9994467729846285  1.0000
  Ni  Ni6       1.0  0.0024999998314314924  0.004999999662862985  0.9991656869697861  1.0000
  Ni  Ni7       1.0  0.00999999932572597  0.007499999716095145  0.9999932071610963  1.0000
  Ni  Ni8       1.0  0.00250000005323216  0.004999999662862985  0.9997263594173652  1.0000
  Ru  Ru5       1.0  0.0024999998314314924  0.004999999662862985  0.9994467729846285  1.0000
  Ru  Ru6       1.0  4.9999998306214e-11  0.007499999716095145  0.9991656869697861  1.0000
  Ru  Ru7       1.0  0.0024999998314314924  0.004999999662862985  0.0  1.0000
  Ru  Ru8       1.0  4.9999998306214e-11  0.007499999716095145  0.9997243279985205  1.0000
  Al  Al17      1.0  0.004999999662862985  0.0  0.9993062298361366  1.0000
  Al  Al18      1.0  0.007499999716095145  0.0024999998314314924  0.9993062298361366  1.0000
  Al  Al19      1.0  0.007499999716095145  0.0024999998314314924  0.9990251438212943  1.0000
  Al  Al20      1.0  0.004999999662862985  0.0  0.9990251438212943  1.0000
  Al  Al21      1.0  0.00500000010646432  0.00999999932572597  0.9998731717501252  1.0000
  Al  Al22      1.0  0.007499999716095145  0.0024999998314314924  0.9998731717501252  1.0000
  Al  Al23      1.0  0.007499999716095145  0.0024999998314314924  0.9995873155688374  1.0000
  Al  Al24      1.0  0.004999999662862985  0.0  0.9995873155688374  1.0000
  Ni  Ni9       1.0  0.004999999662862985  0.0024999998314314924  0.9994467729846285  1.0000
  Ni  Ni10      1.0  0.007499999716095145  0.0  0.9991656869697861  1.0000
  Ni  Ni11      1.0  0.004999999662862985  0.00250000005323216  0.9999932071610963  1.0000
  Ni  Ni12      1.0  0.007499999716095145  9.9999996612428e-11  0.9997263594173652  1.0000
  Ru  Ru9       1.0  0.007499999716095145  0.0  0.9994467729846285  1.0000
  Ru  Ru10      1.0  0.004999999662862985  0.0024999998314314924  0.9991656869697861  1.0000
  Ru  Ru11      1.0  0.007499999716095145  9.9999996612428e-11  0.0  1.0000
  Ru  Ru12      1.0  0.004999999662862985  0.0024999998314314924  0.9997243279985205  1.0000
  Al  Al25      1.0  0.004999999662862985  0.004999999662862985  0.9993062298361366  1.0000
  Al  Al26      1.0  0.007499999716095145  0.007499999716095145  0.9993062298361366  1.0000
  Al  Al27      1.0  0.007499999716095145  0.007499999716095145  0.9990251438212943  1.0000
  Al  Al28      1.0  0.004999999662862985  0.004999999662862985  0.9990251438212943  1.0000
  Al  Al29      1.0  0.00500000010646432  0.004999999662862985  0.9998731717501252  1.0000
  Al  Al30      1.0  0.007499999716095145  0.007499999716095145  0.9998731717501252  1.0000
  Al  Al31      1.0  0.007499999716095145  0.007499999716095145  0.9995873155688374  1.0000
  Al  Al32      1.0  0.004999999662862985  0.004999999662862985  0.9995873155688374  1.0000
  Ni  Ni13      1.0  0.004999999662862985  0.007499999716095145  0.9994467729846285  1.0000
  Ni  Ni14      1.0  0.007499999716095145  0.004999999662862985  0.9991656869697861  1.0000
  Ni  Ni15      1.0  0.004999999662862985  0.007499999716095145  0.9999932071610963  1.0000
  Ni  Ni16      1.0  0.007499999716095145  0.004999999662862985  0.9997263594173652  1.0000
  Ru  Ru13      1.0  0.007499999716095145  0.004999999662862985  0.9994467729846285  1.0000
  Ru  Ru14      1.0  0.004999999662862985  0.007499999716095145  0.9991656869697861  1.0000
  Ru  Ru15      1.0  0.007499999716095145  0.004999999662862985  0.0  1.0000
  Ru  Ru16      1.0  0.004999999662862985  0.007499999716095145  0.9997243279985205  1.0000
