data_image0
_chemical_formula_structural       Ga12H
_chemical_formula_sum              "Ga12 H1"
_cell_length_a       4.634366252880707
_cell_length_b       6.524406790684165
_cell_length_c       33.87234115600586
_cell_angle_alpha    91.56189801688078
_cell_angle_beta     93.6774043817095
_cell_angle_gamma    69.19698762955177

_space_group_name_H-M_alt    "P 1"
_space_group_IT_number       1

loop_
  _space_group_symop_operation_xyz
  'x, y, z'

loop_
  _atom_site_type_symbol
  _atom_site_label
  _atom_site_symmetry_multiplicity
  _atom_site_fract_x
  _atom_site_fract_y
  _atom_site_fract_z
  _atom_site_occupancy
  Ga  Ga1       1.0  0.008778905857089696  0.001519554528059903  8.501608585524003e-05  1.0000
  Ga  Ga2       1.0  0.005011153251158624  0.00441877350277483  0.9983404128676127  1.0000
  Ga  Ga3       1.0  0.008344486144208003  0.008585440556284265  0.9992292320011045  1.0000
  Ga  Ga4       1.0  0.0027195385485003372  0.008897809575395385  0.9982292825942645  1.0000
  Ga  Ga5       1.0  0.0060528718189514245  0.003064476066964799  0.9991181017017227  1.0000
  Ga  Ga6       1.0  0.008867540343575123  0.0076071017608287895  3.919287995375683e-05  1.0000
  Ga  Ga7       1.0  0.002882130550917934  0.0035493457073372597  0.00015420011782419496  1.0000
  Ga  Ga8       1.0  0.008840844578286183  0.006935524189573035  0.9985282741126583  1.0000
  Ga  Ga9       1.0  0.002174178104366224  0.001102190604791904  0.9994170931955636  1.0000
  Ga  Ga10      1.0  0.004625140678976403  0.006500203305012599  0.9996906390046554  1.0000
  Ga  Ga11      1.0  0.007799125204994566  0.008289821625383068  0.9977505852714799  1.0000
  Ga  Ga12      1.0  0.0011324592207659007  0.0024564882696535735  0.9986394043598849  1.0000
  H   H1        1.0  0.005222286290044373  0.008403164927304311  0.00015848075726921062  1.0000
