data_image0
_chemical_formula_structural       HAl24Cu12
_chemical_formula_sum              "H1 Al24 Cu12"
_cell_length_a       7.830583430787913
_cell_length_b       8.678815841674805
_cell_length_c       109.7952651977539
_cell_angle_alpha    90.0
_cell_angle_beta     79.64451625722121
_cell_angle_gamma    56.34701907630284

_space_group_name_H-M_alt    "P 1"
_space_group_IT_number       1

loop_
  _space_group_symop_operation_xyz
  'x, y, z'

loop_
  _atom_site_type_symbol
  _atom_site_label
  _atom_site_symmetry_multiplicity
  _atom_site_fract_x
  _atom_site_fract_y
  _atom_site_fract_z
  _atom_site_occupancy
  H   H1        1.0  0.001604354371840355  0.007947823020114767  1.904150745597906e-05  1.0000
  Al  Al1       1.0  0.005000000046826202  0.0034238870932547633  0.9991380623777315  1.0000
  Al  Al2       1.0  0.008333333216267827  0.0067572203196685846  0.9994401038107775  1.0000
  Al  Al3       1.0  0.001666666731052695  9.055372538714881e-05  0.9997421450765349  1.0000
  Al  Al4       1.0  0.00271740852061192  0.0061412956710157245  0.9993842935098495  1.0000
  Al  Al5       1.0  0.00605074198271731  0.009474629180337132  0.9996863349391435  1.0000
  Al  Al6       1.0  0.009384075152158935  0.002807962355242218  0.9999883763721895  1.0000
  Al  Al7       1.0  0.0039492578182713295  0.0005253712110513867  0.9994959139500449  1.0000
  Al  Al8       1.0  0.007282591280376719  0.0038587042911333255  0.999797955379339  1.0000
  Al  Al9       1.0  0.0006159247219956458  0.007192037570323862  0.999193872516061  1.0000
  Al  Al10      1.0  0.008333333216267827  0.009909446807455162  0.9994401038107775  1.0000
  Al  Al11      1.0  0.001666666731052695  0.003242779998553993  0.9997421450765349  1.0000
  Al  Al12      1.0  0.005000000046826202  0.006576113151801873  0.9991380623777315  1.0000
  Al  Al13      1.0  0.005000000046826202  0.0034238870932547633  0.9995911244427182  1.0000
  Al  Al14      1.0  0.008333333216267827  0.0067572203196685846  0.9998931658757643  1.0000
  Al  Al15      1.0  0.001666666731052695  9.055372538714881e-05  0.9992890830115482  1.0000
  Al  Al16      1.0  0.00605074198271731  0.009474629180337132  0.999233272331286  1.0000
  Al  Al17      1.0  0.009384075152158935  0.002807962355242218  0.999535313764332  1.0000
  Al  Al18      1.0  0.00271740852061192  0.0061412956710157245  0.9998373555748362  1.0000
  Al  Al19      1.0  0.007282591280376719  0.0038587042911333255  0.9993448933143522  1.0000
  Al  Al20      1.0  0.0006159247219956458  0.007192037570323862  0.9996469351239184  1.0000
  Al  Al21      1.0  0.0039492578182713295  0.0005253712110513867  0.9999489765579025  1.0000
  Al  Al22      1.0  0.001666666731052695  0.003242779998553993  0.9992890830115482  1.0000
  Al  Al23      1.0  0.005000000046826202  0.006576113151801873  0.9995911244427182  1.0000
  Al  Al24      1.0  0.008333333216267827  0.009909446807455162  0.9998931658757643  1.0000
  Cu  Cu1       1.0  0.008333333216267827  0.0008333336322401885  0.9992135725068487  1.0000
  Cu  Cu2       1.0  0.001666666731052695  0.004166666874847754  0.999515614315477  1.0000
  Cu  Cu3       1.0  0.005000000046826202  0.0075000004573351035  0.999817655746647  1.0000
  Cu  Cu4       1.0  0.005000000046826202  0.0025000002169610013  0.9993645931387894  1.0000
  Cu  Cu5       1.0  0.008333333216267827  0.005833333872614291  0.9996666345718355  1.0000
  Cu  Cu6       1.0  0.001666666731052695  0.009166667115221858  0.9999686763804637  1.0000
  Cu  Cu7       1.0  0.008333333216267827  0.0008333336322401885  0.9996666345718355  1.0000
  Cu  Cu8       1.0  0.001666666731052695  0.004166666874847754  0.9999686763804637  1.0000
  Cu  Cu9       1.0  0.005000000046826202  0.0075000004573351035  0.9993645931387894  1.0000
  Cu  Cu10      1.0  0.001666666731052695  0.009166667115221858  0.999515614315477  1.0000
  Cu  Cu11      1.0  0.005000000046826202  0.0025000002169610013  0.999817655746647  1.0000
  Cu  Cu12      1.0  0.008333333216267827  0.005833333872614291  0.9992135725068487  1.0000
