data_image0
_chemical_formula_structural       HIn4Rh8Ti4
_chemical_formula_sum              "H1 In4 Rh8 Ti4"
_cell_length_a       4.505039215087891
_cell_length_b       4.505039215087891
_cell_length_c       108.22652435302734
_cell_angle_alpha    90.0
_cell_angle_beta     90.0
_cell_angle_gamma    90.0

_space_group_name_H-M_alt    "P 1"
_space_group_IT_number       1

loop_
  _space_group_symop_operation_xyz
  'x, y, z'

loop_
  _atom_site_type_symbol
  _atom_site_label
  _atom_site_symmetry_multiplicity
  _atom_site_fract_x
  _atom_site_fract_y
  _atom_site_fract_z
  _atom_site_occupancy
  H   H1        1.0  2.7499998246090572e-09  5.6499997507734875e-09  0.00015169519533618454  1.0000
  In  In1       1.0  1.499999906572579e-10  0.005000002662670443  0.9994261154523499  1.0000
  In  In2       1.0  0.005000000181921583  2.8499999580300418e-09  0.9991317750919833  1.0000
  In  In3       1.0  2.7499998246090572e-09  0.005000005556877446  3.785509405506354e-05  1.0000
  In  In4       1.0  0.005000000181921583  2.8499999580300418e-09  0.9997204560880865  1.0000
  Rh  Rh1       1.0  1.499999906572579e-10  2.8499999580300418e-09  0.998984604774115  1.0000
  Rh  Rh2       1.0  1.499999906572579e-10  2.8499999580300418e-09  0.9992789451344817  1.0000
  Rh  Rh3       1.0  0.005000000181921583  0.005000002662670443  0.9992789451344817  1.0000
  Rh  Rh4       1.0  0.005000000181921583  0.005000002662670443  0.998984604774115  1.0000
  Rh  Rh5       1.0  1.499999906572579e-10  2.8499999580300418e-09  0.9995732857702182  1.0000
  Rh  Rh6       1.0  0.00999999953692688  1.1649999869944318e-08  0.999870969946742  1.0000
  Rh  Rh7       1.0  0.0050000005953797265  0.005000000181921583  0.9998709688452625  1.0000
  Rh  Rh8       1.0  0.005000000181921583  0.005000002662670443  0.9995732857702182  1.0000
  Ti  Ti1       1.0  0.005000000181921583  2.8499999580300418e-09  0.9994261154523499  1.0000
  Ti  Ti2       1.0  1.499999906572579e-10  0.005000002662670443  0.9991317750919833  1.0000
  Ti  Ti3       1.0  0.00499999728771458  0.00999999705617802  0.0  1.0000
  Ti  Ti4       1.0  1.499999906572579e-10  0.005000002662670443  0.9997204560880865  1.0000
