data_image0
_chemical_formula_structural       COAl9Cu3Al9Cu3
_chemical_formula_sum              "C1 O1 Al18 Cu6"
_cell_length_a       6.2991116493498955
_cell_length_b       7.7720723152160645
_cell_length_c       101.87126159667969
_cell_angle_alpha    90.0
_cell_angle_beta     108.43494848003311
_cell_angle_gamma    90.0

_space_group_name_H-M_alt    "P 1"
_space_group_IT_number       1

loop_
  _space_group_symop_operation_xyz
  'x, y, z'

loop_
  _atom_site_type_symbol
  _atom_site_label
  _atom_site_symmetry_multiplicity
  _atom_site_fract_x
  _atom_site_fract_y
  _atom_site_fract_z
  _atom_site_occupancy
  C   C1        1.0  0.009902723492456406  0.0018685279770647876  9.42174073166474e-05  1.0000
  O   O1        1.0  0.009902723492456406  0.0018685279770647876  0.0002120127946120317  1.0000
  Al  Al1       1.0  9.727639338537043e-05  0.00612111650823472  0.9998063653688621  1.0000
  Al  Al2       1.0  0.006763943091091644  0.00612111650823472  0.9999367229690368  1.0000
  Al  Al3       1.0  0.003430609649704112  0.00612111650823472  0.9996760077209808  1.0000
  Al  Al4       1.0  9.727639338537043e-05  0.0033633505504436193  1.9021075704483251e-06  1.0000
  Al  Al5       1.0  0.006763943091091644  0.0033633505504436193  0.9997411868154263  1.0000
  Al  Al6       1.0  0.003430609649704112  0.0033633505504436193  0.9998715441671401  1.0000
  Al  Al7       1.0  9.727639338537043e-05  0.008878883185002077  1.9021075704483251e-06  1.0000
  Al  Al8       1.0  0.006763943091091644  0.008878883185002077  0.9997411868154263  1.0000
  Al  Al9       1.0  0.003430609649704112  0.008878883185002077  0.9998715441671401  1.0000
  Cu  Cu1       1.0  9.727639338537043e-05  0.0011211168102047478  0.9998063653688621  1.0000
  Cu  Cu2       1.0  0.006763943091091644  0.0011211168102047478  0.9999367229690368  1.0000
  Cu  Cu3       1.0  0.003430609649704112  0.0011211168102047478  0.9996760077209808  1.0000
  Al  Al10      1.0  9.727639338537043e-05  0.00612111650823472  0.9994152927690922  1.0000
  Al  Al11      1.0  0.006763943091091644  0.00612111650823472  0.9995456503692669  1.0000
  Al  Al12      1.0  0.003430609649704112  0.00612111650823472  0.9992849351212107  1.0000
  Al  Al13      1.0  9.727639338537043e-05  0.0033633505504436193  0.9996108292152517  1.0000
  Al  Al14      1.0  0.006763943091091644  0.0033633505504436193  0.9993501139231075  1.0000
  Al  Al15      1.0  0.003430609649704112  0.0033633505504436193  0.9994804715673702  1.0000
  Al  Al16      1.0  9.727639338537043e-05  0.008878883185002077  0.9996108292152517  1.0000
  Al  Al17      1.0  0.006763943091091644  0.008878883185002077  0.9993501139231075  1.0000
  Al  Al18      1.0  0.003430609649704112  0.008878883185002077  0.9994804715673702  1.0000
  Cu  Cu4       1.0  9.727639338537043e-05  0.0011211168102047478  0.9994152927690922  1.0000
  Cu  Cu5       1.0  0.006763943091091644  0.0011211168102047478  0.9995456503692669  1.0000
  Cu  Cu6       1.0  0.003430609649704112  0.0011211168102047478  0.9992849351212107  1.0000
