data_image0
_chemical_formula_structural       HAs16Rh16As16Rh16
_chemical_formula_sum              "H1 As32 Rh32"
_cell_length_a       6.806483565796086
_cell_length_b       12.887636110276402
_cell_length_c       110.83889770507812
_cell_angle_alpha    98.75555852807162
_cell_angle_beta     64.94011368831988
_cell_angle_gamma    81.24444128417866

_space_group_name_H-M_alt    "P 1"
_space_group_IT_number       1

loop_
  _space_group_symop_operation_xyz
  'x, y, z'

loop_
  _atom_site_type_symbol
  _atom_site_label
  _atom_site_symmetry_multiplicity
  _atom_site_fract_x
  _atom_site_fract_y
  _atom_site_fract_z
  _atom_site_occupancy
  H   H1        1.0  0.0014127447161434777  0.00631238119819126  1.2576980200648924e-05  1.0000
  As  As1       1.0  0.006979602854123293  0.005405441906074681  0.9993208025731118  1.0000
  As  As2       1.0  0.00947960272375503  0.0004054421668112049  0.9991672805854986  1.0000
  As  As3       1.0  0.004479602578749417  0.0004054421668112049  0.9988602365872772  1.0000
  As  As4       1.0  0.0019796027091176795  0.005405441906074681  0.9990137585748904  1.0000
  As  As5       1.0  0.005451865679288158  0.0095539794366623  0.9991746991775095  1.0000
  As  As6       1.0  0.00795186564311662  0.004553979509005382  0.9990211771841118  1.0000
  As  As7       1.0  0.002951866102301058  0.004553979509005382  0.9993282209160368  1.0000
  As  As8       1.0  0.0004518661384725978  0.0095539794366623  0.9988676548946931  1.0000
  As  As9       1.0  0.0036553338475261523  0.007053979774263348  0.9992178979386767  1.0000
  As  As10      1.0  0.006155333962069364  0.002053979545176923  0.9990643759360237  1.0000
  As  As11      1.0  0.0011553339681112651  0.002053979545176923  0.9987573322027531  1.0000
  As  As12      1.0  0.008655333992531765  0.007053979774263348  0.9989108541910363  1.0000
  As  As13      1.0  0.008776134988645844  0.007905442171332646  0.9992776038147397  1.0000
  As  As14      1.0  0.0012761346624630778  0.002905442243675729  0.9991240815707609  1.0000
  As  As15      1.0  0.006276134807468689  0.002905442243675729  0.9988170378231206  1.0000
  As  As16      1.0  0.0037761348436402315  0.007905442171332646  0.9989705598165183  1.0000
  Rh  Rh1       1.0  0.004494414671321891  0.00845162038085565  0.9987411646259309  1.0000
  Rh  Rh2       1.0  0.006994414635150349  0.003451620453198733  0.999201730378395  1.0000
  Rh  Rh3       1.0  0.0019944144901447368  0.003451620453198733  0.9988946866490531  1.0000
  Rh  Rh4       1.0  0.009494414212137451  0.00845162038085565  0.9990482086398677  1.0000
  Rh  Rh5       1.0  0.007937053560660054  0.0065078015647403445  0.9991402493973391  1.0000
  Rh  Rh6       1.0  0.0004370542159533623  0.0015078013356539192  0.9989867271224965  1.0000
  Rh  Rh7       1.0  0.005437054134387706  0.0015078013356539192  0.9992937711266111  1.0000
  Rh  Rh8       1.0  0.002937054019844493  0.0065078015647403445  0.9988332053834023  1.0000
  Rh  Rh9       1.0  0.0017163241756772616  0.009007801227139296  0.9992188075713713  1.0000
  Rh  Rh10      1.0  0.004216324139505721  0.004007801299482378  0.9990652855779736  1.0000
  Rh  Rh11      1.0  0.009216324284511333  0.004007801299482378  0.9987582418303331  1.0000
  Rh  Rh12      1.0  0.0067163243206828736  0.009007801227139296  0.9989117638237309  1.0000
  Rh  Rh13      1.0  0.000715144974008042  0.0059516201155976846  0.999276693905096  1.0000
  Rh  Rh14      1.0  0.0032151448624791242  0.0009516203386555205  0.9991231719163258  1.0000
  Rh  Rh15      1.0  0.00821514470538971  0.0009516203386555205  0.9988161281765432  1.0000
  Rh  Rh16      1.0  0.005715144816918629  0.0059516201155976846  0.9989696501653132  1.0000
  As  As17      1.0  0.006932521509862001  0.005360986479521737  0.9999284974963124  1.0000
  As  As18      1.0  0.009562945792714841  0.0005159789668615055  0.9998049065251734  1.0000
  As  As19      1.0  0.004479602578749417  0.0004054421668112049  0.9994743248708983  1.0000
  As  As20      1.0  0.0019796027091176795  0.005405441906074681  0.9996278468585115  1.0000
  As  As21      1.0  0.005378153974840773  0.009594557876896073  0.9997959406662473  1.0000
  As  As22      1.0  0.00795186564311662  0.004553979509005382  0.9996352649299736  1.0000
  As  As23      1.0  0.0033796999147972006  0.004784157410578356  0.9999377355902872  1.0000
  As  As24      1.0  0.0004518661384725978  0.0095539794366623  0.9994817429094345  1.0000
  As  As25      1.0  0.003748081813941658  0.00714041769969372  0.9998360273842704  1.0000
  As  As26      1.0  0.006147686331147517  0.0020447942345245412  0.999679822917892  1.0000
  As  As27      1.0  0.0011553339681112651  0.002053979545176923  0.9993714202174946  1.0000
  As  As28      1.0  0.008655333992531765  0.007053979774263348  0.9995249419368981  1.0000
  As  As29      1.0  0.00896288606958462  0.007878774099988401  0.9998928694705721  1.0000
  As  As30      1.0  0.001198930658637914  0.0028898486924190544  0.9997534755699472  1.0000
  As  As31      1.0  0.006276134807468689  0.002905442243675729  0.9994311255689824  1.0000
  As  As32      1.0  0.0037761348436402315  0.007905442171332646  0.9995846475623801  1.0000
  Rh  Rh17      1.0  0.004494414671321891  0.00845162038085565  0.9993552523717927  1.0000
  Rh  Rh18      1.0  0.007297194661638667  0.0034646192992590598  0.999794966936041  1.0000
  Rh  Rh19      1.0  0.0019944144901447368  0.003451620453198733  0.9995087746637946  1.0000
  Rh  Rh20      1.0  0.009494414212137451  0.00845162038085565  0.9996622963857295  1.0000
  Rh  Rh21      1.0  0.007972966792024196  0.006491814346547514  0.9997513954641254  1.0000
  Rh  Rh22      1.0  0.0004370542159533623  0.0015078013356539192  0.9996008154061176  1.0000
  Rh  Rh23      1.0  0.005864266955750729  0.0013278112962834638  0.9998709677185639  1.0000
  Rh  Rh24      1.0  0.002937054019844493  0.0065078015647403445  0.9994472931292641  1.0000
  Rh  Rh25      1.0  0.002018454848851515  0.008959091424524404  0.9998113565572042  1.0000
  Rh  Rh26      1.0  0.004197060851398109  0.003976151201246261  0.9996785210016738  1.0000
  Rh  Rh27      1.0  0.009216324284511333  0.004007801299482378  0.999372329576195  1.0000
  Rh  Rh28      1.0  0.0067163243206828736  0.009007801227139296  0.9995258515695927  1.0000
  Rh  Rh29      1.0  0.0010826959469009212  0.005994958444397647  0.9998659229062983  1.0000
  Rh  Rh30      1.0  0.0032180336407831257  0.0009436453428311632  0.999726674836635  1.0000
  Rh  Rh31      1.0  0.00821514470538971  0.0009516203386555205  0.999430215922405  1.0000
  Rh  Rh32      1.0  0.005715144816918629  0.0059516201155976846  0.999583737911175  1.0000
