data_image0
_chemical_formula_structural       COCa2Sb4Ca2Sb4Ca2Sb4Ca2Sb4
_chemical_formula_sum              "C1 O1 Ca8 Sb16"
_cell_length_a       8.750533103942871
_cell_length_b       9.000734917010137
_cell_length_c       103.1092529296875
_cell_angle_alpha    74.36384022498201
_cell_angle_beta     90.0
_cell_angle_gamma    90.0

_space_group_name_H-M_alt    "P 1"
_space_group_IT_number       1

loop_
  _space_group_symop_operation_xyz
  'x, y, z'

loop_
  _atom_site_type_symbol
  _atom_site_label
  _atom_site_symmetry_multiplicity
  _atom_site_fract_x
  _atom_site_fract_y
  _atom_site_fract_z
  _atom_site_occupancy
  C   C1        1.0  0.003750013606059942  0.0053066186460389575  3.209128269044512e-05  1.0000
  O   O1        1.0  0.003750013606059942  0.0053066186460389575  0.0001484729262164452  1.0000
  Ca  Ca1       1.0  0.003750008923123166  0.003013354734518133  0.9994956925848066  1.0000
  Ca  Ca2       1.0  0.0012500088635221526  0.007148974212402218  0.9993814646514619  1.0000
  Sb  Sb1       1.0  0.003750008923123166  0.0002594611816730475  0.999333401394415  1.0000
  Sb  Sb2       1.0  0.0012500088635221526  0.00990286795328167  0.9990850294215935  1.0000
  Sb  Sb3       1.0  0.003750008923123166  0.006298322640270904  0.9991725480523636  1.0000
  Sb  Sb4       1.0  0.0012500088635221526  0.0038640065215458656  0.9992458830520493  1.0000
  Ca  Ca3       1.0  0.0037500199918828188  0.0028845187440427276  0.9999176721941364  1.0000
  Ca  Ca4       1.0  0.001250010566408253  0.0073255619063426255  0.9998276447329516  1.0000
  Sb  Sb5       1.0  0.0037500110517307917  9.713179797572525e-05  0.9997833601286421  1.0000
  Sb  Sb6       1.0  0.0012500088635221526  0.00990286795328167  0.999543756126466  1.0000
  Sb  Sb7       1.0  0.003750008923123166  0.006298322640270904  0.9996312741791633  1.0000
  Sb  Sb8       1.0  0.0012499799144584456  0.0037942760719349706  0.9996956710610931  1.0000
  Ca  Ca5       1.0  0.008750008616603668  0.003013354734518133  0.9994956925848066  1.0000
  Ca  Ca6       1.0  0.0062500087698634165  0.007148974212402218  0.9993814646514619  1.0000
  Sb  Sb9       1.0  0.008750008616603668  0.0002594611816730475  0.999333401394415  1.0000
  Sb  Sb10      1.0  0.0062500087698634165  0.00990286795328167  0.9990850294215935  1.0000
  Sb  Sb11      1.0  0.008750008616603668  0.006298322640270904  0.9991725480523636  1.0000
  Sb  Sb12      1.0  0.0062500087698634165  0.0038640065215458656  0.9992458830520493  1.0000
  Ca  Ca7       1.0  0.008750019685363321  0.0028845187440427276  0.9999176721941364  1.0000
  Ca  Ca8       1.0  0.006250010472749517  0.0073255619063426255  0.9998276447329516  1.0000
  Sb  Sb13      1.0  0.008750011170932818  9.713179797572525e-05  0.9997833601286421  1.0000
  Sb  Sb14      1.0  0.0062500087698634165  0.00990286795328167  0.999543756126466  1.0000
  Sb  Sb15      1.0  0.008750008616603668  0.006298322640270904  0.9996312741791633  1.0000
  Sb  Sb16      1.0  0.00624997982079971  0.0037942760719349706  0.9996956710610931  1.0000
