data_image0
_chemical_formula_structural       COV8Pt8V8Pt8
_chemical_formula_sum              "C1 O1 V16 Pt16"
_cell_length_a       7.258870212153727
_cell_length_b       5.1825553122374375
_cell_length_c       105.38508605957031
_cell_angle_alpha    109.30602672715898
_cell_angle_beta     99.51545601053385
_cell_angle_gamma    66.94399673501175

_space_group_name_H-M_alt    "P 1"
_space_group_IT_number       1

loop_
  _space_group_symop_operation_xyz
  'x, y, z'

loop_
  _atom_site_type_symbol
  _atom_site_label
  _atom_site_symmetry_multiplicity
  _atom_site_fract_x
  _atom_site_fract_y
  _atom_site_fract_z
  _atom_site_occupancy
  C   C1        1.0  0.009085273586176999  0.0014826232166534445  0.00017960925980251848  1.0000
  O   O1        1.0  0.009085273586176999  0.0014826232166534445  0.00029347759513710176  1.0000
  V   V1        1.0  0.006478167264270776  0.007869601876304965  0.9998374288115178  1.0000
  V   V2        1.0  0.003978166884672302  0.005369602016523159  0.9996695442140271  1.0000
  V   V3        1.0  0.0089781670856362  0.0003696023670182793  5.313537339689643e-06  1.0000
  V   V4        1.0  0.0014781669237486164  0.0028696023157068623  0.9995016596238884  1.0000
  V   V5        1.0  0.0010218331069542011  0.0008259360798767336  0.9997001890831491  1.0000
  V   V6        1.0  0.008521833338620916  0.008325935568678063  0.9995323040634916  1.0000
  V   V7        1.0  0.003521833137657019  0.003325935934127872  0.9998680736765769  1.0000
  V   V8        1.0  0.006021832959022443  0.005825935708896256  3.595826632897847e-05  1.0000
  Pt  Pt1       1.0  0.007782628391279174  0.00406514079224959  0.9995819444602974  1.0000
  Pt  Pt2       1.0  0.00528262856991375  0.001565140636659434  8.559894747619341e-05  1.0000
  Pt  Pt3       1.0  0.00028262840383941795  0.006565140267676292  0.9997498290586713  1.0000
  Pt  Pt4       1.0  0.0027826284694318013  0.009065140293850294  0.9999177142208808  1.0000
  Pt  Pt5       1.0  0.007217371653379469  0.002130397664486718  0.9997877882664404  1.0000
  Pt  Pt6       1.0  0.004717371832014045  0.009630396792951633  0.9996199035344269  1.0000
  Pt  Pt7       1.0  0.009717371474744893  0.0046303974392551015  0.9999556734217815  1.0000
  Pt  Pt8       1.0  0.002217371591973834  0.007130397620861282  0.00012355803282881861  1.0000
  V   V9        1.0  0.006478167264270776  0.007869601876304965  0.9991658900111897  1.0000
  V   V10       1.0  0.003978166884672302  0.005369602016523159  0.9989980054136991  1.0000
  V   V11       1.0  0.0089781670856362  0.0003696023670182793  0.9993337747370117  1.0000
  V   V12       1.0  0.0014781669237486164  0.0028696023157068623  0.9988301208235604  1.0000
  V   V13       1.0  0.0010218331069542011  0.0008259360798767336  0.9990286500000265  1.0000
  V   V14       1.0  0.008521833338620916  0.008325935568678063  0.9988607652631636  1.0000
  V   V15       1.0  0.003521833137657019  0.003325935934127872  0.9991965345934545  1.0000
  V   V16       1.0  0.006021832959022443  0.005825935708896256  0.999364419466001  1.0000
  Pt  Pt9       1.0  0.007782628391279174  0.00406514079224959  0.9989104056599694  1.0000
  Pt  Pt10      1.0  0.00528262856991375  0.001565140636659434  0.9994140598643537  1.0000
  Pt  Pt11      1.0  0.00028262840383941795  0.006565140267676292  0.9990782905411378  1.0000
  Pt  Pt12      1.0  0.0027826284694318013  0.009065140293850294  0.9992461751377583  1.0000
  Pt  Pt13      1.0  0.007217371653379469  0.002130397664486718  0.999116249748907  1.0000
  Pt  Pt14      1.0  0.004717371832014045  0.009630396792951633  0.9989483650168934  1.0000
  Pt  Pt15      1.0  0.009717371474744893  0.0046303974392551015  0.9992841343386589  1.0000
  Pt  Pt16      1.0  0.002217371591973834  0.007130397620861282  0.9994520189497064  1.0000
