data_image0
_chemical_formula_structural       COGa3Ag6Ga3Ag6Ga3Ag6
_chemical_formula_sum              "C1 O1 Ga9 Ag18"
_cell_length_a       7.962718486785889
_cell_length_b       8.494677891364388
_cell_length_c       102.54711151123047
_cell_angle_alpha    69.6156767532569
_cell_angle_beta     90.0
_cell_angle_gamma    62.05079141346804

_space_group_name_H-M_alt    "P 1"
_space_group_IT_number       1

loop_
  _space_group_symop_operation_xyz
  'x, y, z'

loop_
  _atom_site_type_symbol
  _atom_site_label
  _atom_site_symmetry_multiplicity
  _atom_site_fract_x
  _atom_site_fract_y
  _atom_site_fract_z
  _atom_site_occupancy
  C   C1        1.0  0.002218244788581445  0.002471447270340418  0.9999027920621664  1.0000
  O   O1        1.0  0.002218244788581445  0.002471447270340418  1.9811685068027223e-05  1.0000
  Ga  Ga1       1.0  0.0033582172492811874  0.0033351854127965535  0.9990614185813077  1.0000
  Ga  Ga2       1.0  0.00669155081953422  0.0066685184219997745  0.9992537745656621  1.0000
  Ga  Ga3       1.0  2.4884200631679602e-05  1.8520000133582123e-06  0.9990133296741296  1.0000
  Ag  Ag1       1.0  2.488430264901239e-05  0.006946535083670515  0.9992457528509392  1.0000
  Ag  Ag2       1.0  0.0069695676426425514  0.0030571690212342394  0.9990694402882371  1.0000
  Ag  Ag3       1.0  0.003080201038891566  1.8520000133582123e-06  0.9991575964490405  1.0000
  Ag  Ag4       1.0  0.006414393379153705  1.8520000133582123e-06  0.9990133296741296  1.0000
  Ag  Ag5       1.0  0.0036353748926149874  0.006391361245344195  0.9991175044158231  1.0000
  Ag  Ag6       1.0  2.4884262666755118e-05  0.0036123425894521322  0.9991976884405259  1.0000
  Ga  Ga4       1.0  0.0033582172492811874  0.0033351854127965535  0.9993499524217503  1.0000
  Ga  Ga5       1.0  0.0066502621765997996  0.006679001330057113  0.9995302680559689  1.0000
  Ga  Ga6       1.0  2.4884200631679602e-05  1.8520000133582123e-06  0.9993018632239513  1.0000
  Ag  Ag7       1.0  2.488430264901239e-05  0.006946535083670515  0.999534286400761  1.0000
  Ag  Ag8       1.0  0.0069695676426425514  0.0030571690212342394  0.9993579741286797  1.0000
  Ag  Ag9       1.0  0.003080201038891566  1.8520000133582123e-06  0.999446130289483  1.0000
  Ag  Ag10      1.0  0.006414393379153705  1.8520000133582123e-06  0.9993018632239513  1.0000
  Ag  Ag11      1.0  0.0036353748926149874  0.006391361245344195  0.9994060379656449  1.0000
  Ag  Ag12      1.0  2.4884262666755118e-05  0.0036123425894521322  0.9994862219903476  1.0000
  Ga  Ga7       1.0  0.003470993351173511  0.0032197256748561815  0.9996715089363737  1.0000
  Ga  Ga8       1.0  0.006634593719499776  0.006574855083587538  0.9998102933417442  1.0000
  Ga  Ga9       1.0  3.7131541968212185e-05  0.009998147704450039  0.9996033554411471  1.0000
  Ag  Ag13      1.0  0.009835006514997373  0.007015635301935412  0.9998069717029135  1.0000
  Ag  Ag14      1.0  0.006978469878786924  0.0030505197620833116  0.9996513058714619  1.0000
  Ag  Ag15      1.0  0.0030994108312321672  8.052800041903811e-06  0.9997313648206081  1.0000
  Ag  Ag16      1.0  0.006338271320610255  0.00017977500230024338  0.9995937556180777  1.0000
  Ag  Ag17      1.0  0.0036288535552063197  0.006356257413936108  0.9997009579573148  1.0000
  Ag  Ag18      1.0  0.009975116204151613  0.0037039301446017904  0.9997664870942826  1.0000
