data_image0
_chemical_formula_structural       HV6Si2V6Si2
_chemical_formula_sum              "H1 V12 Si4"
_cell_length_a       4.712306976318359
_cell_length_b       4.712306976318359
_cell_length_c       102.98615264892578
_cell_angle_alpha    90.0
_cell_angle_beta     90.0
_cell_angle_gamma    90.0

_space_group_name_H-M_alt    "P 1"
_space_group_IT_number       1

loop_
  _space_group_symop_operation_xyz
  'x, y, z'

loop_
  _atom_site_type_symbol
  _atom_site_label
  _atom_site_symmetry_multiplicity
  _atom_site_fract_x
  _atom_site_fract_y
  _atom_site_fract_z
  _atom_site_occupancy
  H   H1        1.0  0.007500000758923114  0.0038576476941537827  7.4536080627911e-05  1.0000
  V   V1        1.0  4.0000001992988616e-10  0.00500000762085294  0.9992084286757754  1.0000
  V   V2        1.0  4.0000001992988616e-10  0.00500000762085294  0.9994372122224925  1.0000
  V   V3        1.0  0.005000000505948743  0.002500007367878569  0.9995516039958511  1.0000
  V   V4        1.0  0.005000000505948743  0.007500007873827312  0.9995516039958511  1.0000
  V   V5        1.0  0.007500000758923114  7.35000056647229e-09  0.9993228201597522  1.0000
  V   V6        1.0  0.0025000004506105992  7.35000056647229e-09  0.9993228201597522  1.0000
  Si  Si1       1.0  4.0000001992988616e-10  7.35000056647229e-09  0.9995516039958511  1.0000
  Si  Si2       1.0  0.005000000505948743  0.00500000762085294  0.9993228201597522  1.0000
  V   V7        1.0  4.0000001992988616e-10  0.00500000762085294  0.9996659954798278  1.0000
  V   V8        1.0  4.699999975015345e-09  0.005000014340484683  0.9999098060467525  1.0000
  V   V9        1.0  0.004999996157951733  0.00271528124545911  0.0  1.0000
  V   V10       1.0  0.004999996157951733  0.0072847282647961675  0.9999999994212363  1.0000
  V   V11       1.0  0.0075083987175110075  0.009999993106448378  0.9997797416423005  1.0000
  V   V12       1.0  0.00249160822347331  0.009999993106448378  0.9997797416423005  1.0000
  Si  Si3       1.0  0.010000000221352575  1.3850000395571381e-08  4.006780961967837e-06  1.0000
  Si  Si4       1.0  0.004999999715403832  0.004999956630706191  0.9997757597481769  1.0000
