data_image0
_chemical_formula_structural       COCa6Cu12Ge12Ca6Cu12Ge12
_chemical_formula_sum              "C1 O1 Ca12 Cu24 Ge24"
_cell_length_a       11.244704241163491
_cell_length_b       9.407349004130133
_cell_length_c       105.69837951660156
_cell_angle_alpha    108.43494882292202
_cell_angle_beta     74.65937004022099
_cell_angle_gamma    80.36793498071992

_space_group_name_H-M_alt    "P 1"
_space_group_IT_number       1

loop_
  _space_group_symop_operation_xyz
  'x, y, z'

loop_
  _atom_site_type_symbol
  _atom_site_label
  _atom_site_symmetry_multiplicity
  _atom_site_fract_x
  _atom_site_fract_y
  _atom_site_fract_z
  _atom_site_occupancy
  C   C1        1.0  0.008163071513825225  0.003668178276164345  0.9998734919073354  1.0000
  O   O1        1.0  0.008163071513825225  0.003668178276164345  0.9999870227331964  1.0000
  Ca  Ca1       1.0  0.0006082336529413847  0.0031305888574881878  0.999286908661422  1.0000
  Ca  Ca2       1.0  0.0006930388536570639  0.00647670654996049  0.999657394116069  1.0000
  Ca  Ca3       1.0  0.0006082336529413847  0.009797255883134695  0.9994745410000009  1.0000
  Ca  Ca4       1.0  0.0056082336207899375  0.0014639222015386695  0.9993807250975443  1.0000
  Ca  Ca5       1.0  0.005784585376774485  0.004674025626560968  0.9997393218373983  1.0000
  Ca  Ca6       1.0  0.005604371517583943  0.008164084600249788  0.9995708445780637  1.0000
  Cu  Cu1       1.0  0.003095766690196  0.0007083445249163851  0.9995784335539695  1.0000
  Cu  Cu2       1.0  0.0031082335922108743  0.003963922352987287  0.9993807249672721  1.0000
  Cu  Cu3       1.0  0.0030687684060601147  0.007312650899460047  0.9997317377520825  1.0000
  Cu  Cu4       1.0  0.0032661386343624784  0.0037306482651904985  0.9996402765930352  1.0000
  Cu  Cu5       1.0  0.0031082335922108743  0.007297255970165147  0.9994745411394986  1.0000
  Cu  Cu6       1.0  0.0031082335922108743  0.000630588840164033  0.9992869087979828  1.0000
  Cu  Cu7       1.0  0.008108234006607297  0.0022972555481884796  0.9994745408227245  1.0000
  Cu  Cu8       1.0  0.008108234006607297  0.005630589165366339  0.9992869087954723  1.0000
  Cu  Cu9       1.0  0.008196606901519198  0.008916119193905508  0.9996704104852092  1.0000
  Cu  Cu10      1.0  0.008108234006607297  0.008963922365125778  0.9993807249559507  1.0000
  Cu  Cu11      1.0  0.00825773751853981  0.0019416415976589128  0.9997219803639967  1.0000
  Cu  Cu12      1.0  0.008162350606946148  0.005536197790774252  0.9995480792482621  1.0000
  Ge  Ge1       1.0  0.00431183799742889  0.0019734219541127987  0.9997312284239844  1.0000
  Ge  Ge2       1.0  0.004391766493526316  0.005202744652428527  0.9995201909758171  1.0000
  Ge  Ge3       1.0  0.004391766493526316  0.008536078269606385  0.9993325583846524  1.0000
  Ge  Ge4       1.0  0.0017179298451778385  0.002785170047434004  0.999531459655513  1.0000
  Ge  Ge5       1.0  0.0018247008695145802  0.006058433193765772  0.9993350751125025  1.0000
  Ge  Ge6       1.0  0.0017546359013580588  0.009524967962206166  0.999722153453813  1.0000
  Ge  Ge7       1.0  0.009357642791518794  0.0003067931301032638  0.9998190757167119  1.0000
  Ge  Ge8       1.0  0.009195949594488237  0.0038642913317479756  0.9996577373216723  1.0000
  Ge  Ge9       1.0  0.009391766193446147  0.006869411702966441  0.9994263748308292  1.0000
  Ge  Ge10      1.0  0.006722748868314808  0.0009806285005333445  0.9996188701305573  1.0000
  Ge  Ge11      1.0  0.006824701105291854  0.004391766448506679  0.9994288915385704  1.0000
  Ge  Ge12      1.0  0.007682805351518824  0.007034262950739447  0.9997997745413866  1.0000
  Ca  Ca7       1.0  0.0006082336529413847  0.0031305888574881878  0.9987240116985523  1.0000
  Ca  Ca8       1.0  0.0006082336529413847  0.006463922265956837  0.9990992763463395  1.0000
  Ca  Ca9       1.0  0.0006082336529413847  0.009797255883134695  0.9989116440371312  1.0000
  Ca  Ca10      1.0  0.0056082336207899375  0.0014639222015386695  0.9988178278527182  1.0000
  Ca  Ca11      1.0  0.0056082336207899375  0.004797255610007319  0.9991930925005055  1.0000
  Ca  Ca12      1.0  0.0056082336207899375  0.008130589227185177  0.9990054601912971  1.0000
  Cu  Cu13      1.0  0.0031082335922108743  0.000630588840164033  0.9990054603165478  1.0000
  Cu  Cu14      1.0  0.0031082335922108743  0.003963922352987287  0.9988178280044023  1.0000
  Cu  Cu15      1.0  0.0031082335922108743  0.007297255970165147  0.9991930926580638  1.0000
  Cu  Cu16      1.0  0.0031082335922108743  0.003963922352987287  0.9990992764858373  1.0000
  Cu  Cu17      1.0  0.0031082335922108743  0.007297255970165147  0.9989116441766288  1.0000
  Cu  Cu18      1.0  0.0031082335922108743  0.000630588840164033  0.998724011835113  1.0000
  Cu  Cu19      1.0  0.008108234006607297  0.0022972555481884796  0.998911644141811  1.0000
  Cu  Cu20      1.0  0.008108234006607297  0.005630589165366339  0.9987240118326026  1.0000
  Cu  Cu21      1.0  0.008108234006607297  0.008963922365125778  0.9990992764745158  1.0000
  Cu  Cu22      1.0  0.008108234006607297  0.008963922365125778  0.9988178279930809  1.0000
  Cu  Cu23      1.0  0.008108234006607297  0.0022972555481884796  0.9991930926232458  1.0000
  Cu  Cu24      1.0  0.008108234006607297  0.005630589165366339  0.9990054603140375  1.0000
  Ge  Ge13      1.0  0.004391766493526316  0.001869411243959877  0.9991449260460736  1.0000
  Ge  Ge14      1.0  0.004391766493526316  0.005202744652428527  0.9989572937309911  1.0000
  Ge  Ge15      1.0  0.004391766493526316  0.008536078269606385  0.9987696614217827  1.0000
  Ge  Ge16      1.0  0.0018247008695145802  0.0027250997852971224  0.9989598104647153  1.0000
  Ge  Ge17      1.0  0.0018247008695145802  0.006058433193765772  0.9987721781496327  1.0000
  Ge  Ge18      1.0  0.0018247008695145802  0.009391766810943631  0.999147442803294  1.0000
  Ge  Ge19      1.0  0.009391766193446147  0.00020274467731993268  0.9992387424922503  1.0000
  Ge  Ge20      1.0  0.009391766193446147  0.0035360780857885818  0.9990511098952115  1.0000
  Ge  Ge21      1.0  0.009391766193446147  0.006869411702966441  0.9988634775860031  1.0000
  Ge  Ge22      1.0  0.006824701105291854  0.0010584330400380305  0.9990536266088268  1.0000
  Ge  Ge23      1.0  0.006824701105291854  0.004391766448506679  0.9988659942937443  1.0000
  Ge  Ge24      1.0  0.006824701105291854  0.007725100065684539  0.9992412589474057  1.0000
