data_image0
_chemical_formula_structural       HV18Ir6V18Ir6
_chemical_formula_sum              "H1 V36 Ir12"
_cell_length_a       4.789687156677246
_cell_length_b       10.71006569752435
_cell_length_c       110.64183807373047
_cell_angle_alpha    71.56505158041733
_cell_angle_beta     90.0
_cell_angle_gamma    90.0

_space_group_name_H-M_alt    "P 1"
_space_group_IT_number       1

loop_
  _space_group_symop_operation_xyz
  'x, y, z'

loop_
  _atom_site_type_symbol
  _atom_site_label
  _atom_site_symmetry_multiplicity
  _atom_site_fract_x
  _atom_site_fract_y
  _atom_site_fract_z
  _atom_site_occupancy
  H   H1        1.0  0.006248261988011193  0.006555067649379131  0.9998113869720032  1.0000
  V   V1        1.0  2.999999773671299e-10  0.007505547057846267  0.9987194449053148  1.0000
  V   V2        1.0  2.999999773671299e-10  0.004172213773399042  0.9991275870196062  1.0000
  V   V3        1.0  2.999999773671299e-10  0.0008388804889518177  0.9989235159925389  1.0000
  V   V4        1.0  2.999999773671299e-10  0.005838880415622655  0.9992296225331398  1.0000
  V   V5        1.0  2.999999773671299e-10  0.0025055471311754302  0.9990255515060725  1.0000
  V   V6        1.0  2.999999773671299e-10  0.009172214066715693  0.9988214804076253  1.0000
  V   V7        1.0  0.005000000171110104  0.007505547057846267  0.9988724981906545  1.0000
  V   V8        1.0  0.005000000171110104  0.004172213773399042  0.9986684271635873  1.0000
  V   V9        1.0  0.005000000171110104  0.0008388804889518177  0.9990765692778786  1.0000
  V   V10       1.0  0.005000000171110104  0.009172214066715693  0.9986684271222857  1.0000
  V   V11       1.0  0.005000000171110104  0.005838880415622655  0.9990765692478002  1.0000
  V   V12       1.0  0.005000000171110104  0.0025055471311754302  0.9988724982207329  1.0000
  V   V13       1.0  0.007500000062221856  0.005005547277833755  0.9988724979307235  1.0000
  V   V14       1.0  0.007500000062221856  0.001672213810063624  0.9986684269092679  1.0000
  V   V15       1.0  0.007500000062221856  0.008338880195635166  0.9990765695077312  1.0000
  V   V16       1.0  0.0025000002799983514  0.005005547277833755  0.9988724979307235  1.0000
  V   V17       1.0  0.0025000002799983514  0.001672213810063624  0.9986684269092679  1.0000
  V   V18       1.0  0.0025000002799983514  0.008338880195635166  0.9990765695077312  1.0000
  Ir  Ir1       1.0  0.005000000171110104  0.006672213920057368  0.9986684268735779  1.0000
  Ir  Ir2       1.0  0.005000000171110104  0.0033388806356101433  0.9990765689878692  1.0000
  Ir  Ir3       1.0  0.005000000171110104  5.547200064741218e-06  0.9988724979654271  1.0000
  Ir  Ir4       1.0  2.999999773671299e-10  0.006672213920057368  0.9989745334442572  1.0000
  Ir  Ir5       1.0  2.999999773671299e-10  0.0033388806356101433  0.9987704624171899  1.0000
  Ir  Ir6       1.0  2.999999773671299e-10  5.547200064741218e-06  0.9991786045361064  1.0000
  V   V19       1.0  2.999999773671299e-10  0.007505547057846267  0.9993316580466735  1.0000
  V   V20       1.0  0.00999999878667381  0.004219898994651312  0.9997281016284215  1.0000
  V   V21       1.0  2.999999773671299e-10  0.0008388804889518177  0.9995357291338975  1.0000
  V   V22       1.0  3.9999998527580487e-10  0.0062235083733691  0.9998094942791909  1.0000
  V   V23       1.0  0.009999999564447009  0.002542650587595381  0.999638577964303  1.0000
  V   V24       1.0  2.999999773671299e-10  0.009172214066715693  0.9994336935489838  1.0000
  V   V25       1.0  0.005000000171110104  0.007505547057846267  0.9994847113320131  1.0000
  V   V26       1.0  0.005000000171110104  0.004172213773399042  0.9992806403049458  1.0000
  V   V27       1.0  0.004999999393336905  0.0009159795956324916  0.9996941583412828  1.0000
  V   V28       1.0  0.005000000171110104  0.009172214066715693  0.9992806402636442  1.0000
  V   V29       1.0  0.005000000171110104  0.005859249423808771  0.9996991320079239  1.0000
  V   V30       1.0  0.005000000171110104  0.0025055471311754302  0.9994847113620915  1.0000
  V   V31       1.0  0.007500000062221856  0.005005547277833755  0.9994847116107992  1.0000
  V   V32       1.0  0.007500000062221856  0.001672213810063624  0.9992806405893435  1.0000
  V   V33       1.0  0.007496524193798881  0.008329030622493022  0.9996839965072252  1.0000
  V   V34       1.0  0.0025000002799983514  0.005005547277833755  0.9994847116107992  1.0000
  V   V35       1.0  0.0025000002799983514  0.001672213810063624  0.9992806405893435  1.0000
  V   V36       1.0  0.002503475759534728  0.008329030622493022  0.9996839965072252  1.0000
  Ir  Ir7       1.0  0.005000000171110104  0.006672213920057368  0.9992806405536535  1.0000
  Ir  Ir8       1.0  0.004999999393336905  0.0033676912970133795  0.9996858213066638  1.0000
  Ir  Ir9       1.0  0.005000000171110104  5.547200064741218e-06  0.9994847116455028  1.0000
  Ir  Ir10      1.0  5.999999547342598e-10  0.006671399233059086  0.9995811850279017  1.0000
  Ir  Ir11      1.0  2.999999773671299e-10  0.0033388806356101433  0.9993826760972656  1.0000
  Ir  Ir12      1.0  0.00999999878667381  0.009994452502178756  0.9997708141955857  1.0000
