data_image0
_chemical_formula_structural       HAl10Cu10Al10Cu10
_chemical_formula_sum              "H1 Al20 Cu20"
_cell_length_a       8.281793594360352
_cell_length_b       6.996561085656709
_cell_length_c       39.97114944458008
_cell_angle_alpha    89.9942492623647
_cell_angle_beta     90.0
_cell_angle_gamma    90.0

_space_group_name_H-M_alt    "P 1"
_space_group_IT_number       1

loop_
  _space_group_symop_operation_xyz
  'x, y, z'

loop_
  _atom_site_type_symbol
  _atom_site_label
  _atom_site_symmetry_multiplicity
  _atom_site_fract_x
  _atom_site_fract_y
  _atom_site_fract_z
  _atom_site_occupancy
  H   H1        1.0  0.0037499813775824526  0.006446466363526328  0.00026566854444677807  1.0000
  Al  Al1       1.0  0.0037499998200732606  8.749665296515804e-05  0.9978062370683064  1.0000
  Al  Al2       1.0  0.001250061152600618  0.0018299727906936566  0.9998508244517376  1.0000
  Al  Al3       1.0  0.0012499999775091575  0.008139611338000275  0.9981974443159447  1.0000
  Al  Al4       1.0  0.0012500345009523162  0.00881986582686856  0.999350308054531  1.0000
  Al  Al5       1.0  0.0012499999775091575  0.0012624339057856647  0.9987534068308527  1.0000
  Al  Al6       1.0  0.0012499999775091575  0.005087496686908585  0.999058342380175  1.0000
  Al  Al7       1.0  0.0037499998200732606  0.007035381354286134  0.9986671354064526  1.0000
  Al  Al8       1.0  0.0037499980208058645  0.0031885459282217257  0.9994661294270822  1.0000
  Al  Al9       1.0  0.0037499998200732606  0.003912559217781928  0.9981111729904304  1.0000
  Al  Al10      1.0  0.0037499813775824526  0.00644671501576517  0.9999574336315582  1.0000
  Cu  Cu1       1.0  0.0012499999775091575  0.005087496686908585  0.9978062372052581  1.0000
  Cu  Cu2       1.0  0.0037499998200732606  0.00026112435161506096  0.9984123892622119  1.0000
  Cu  Cu3       1.0  0.003749937295531253  0.009912502865836854  0.999725215449967  1.0000
  Cu  Cu4       1.0  0.0012501904749446977  0.008379650199395456  0.9999998527806813  1.0000
  Cu  Cu5       1.0  0.0012499999775091575  0.001716599482926019  0.9980790752718134  1.0000
  Cu  Cu6       1.0  0.0037499998200732606  8.749665296515804e-05  0.9990583426160213  1.0000
  Cu  Cu7       1.0  0.0012501203035162579  0.005187655619030302  0.9996865349319989  1.0000
  Cu  Cu8       1.0  0.0012499999775091575  0.004913868738674663  0.9984521901862738  1.0000
  Cu  Cu9       1.0  0.0037499998200732606  0.003458393773753051  0.9987855041766694  1.0000
  Cu  Cu10      1.0  0.003749972381245473  0.006678292779242918  0.9993109319923033  1.0000
  Al  Al11      1.0  0.008749999280293042  8.749665296515804e-05  0.9978062370683064  1.0000
  Al  Al12      1.0  0.006250060725274612  0.0018299727906936566  0.9998508244517376  1.0000
  Al  Al13      1.0  0.006249999550183152  0.008139611338000275  0.9981974443159447  1.0000
  Al  Al14      1.0  0.006250034186080522  0.00881986582686856  0.999350308054531  1.0000
  Al  Al15      1.0  0.006249999550183152  0.0012624339057856647  0.9987534068308527  1.0000
  Al  Al16      1.0  0.006249999550183152  0.005087496686908585  0.999058342380175  1.0000
  Al  Al17      1.0  0.008749999280293042  0.007035381354286134  0.9986671354064526  1.0000
  Al  Al18      1.0  0.008749997481025645  0.0031885459282217257  0.9994661294270822  1.0000
  Al  Al19      1.0  0.008749999280293042  0.003912559217781928  0.9981111729904304  1.0000
  Al  Al20      1.0  0.008749981287619083  0.00644671501576517  0.9999574336315582  1.0000
  Cu  Cu11      1.0  0.006249999550183152  0.005087496686908585  0.9978062372052581  1.0000
  Cu  Cu12      1.0  0.008749999280293042  0.00026112435161506096  0.9984123892622119  1.0000
  Cu  Cu13      1.0  0.008749937205567883  0.009912502865836854  0.999725215449967  1.0000
  Cu  Cu14      1.0  0.0062501902725271155  0.008379650199395456  0.9999998527806813  1.0000
  Cu  Cu15      1.0  0.006249999550183152  0.001716599482926019  0.9980790752718134  1.0000
  Cu  Cu16      1.0  0.008749999280293042  8.749665296515804e-05  0.9990583426160213  1.0000
  Cu  Cu17      1.0  0.006250120101098676  0.005187655619030302  0.9996865349319989  1.0000
  Cu  Cu18      1.0  0.006249999550183152  0.004913868738674663  0.9984521901862738  1.0000
  Cu  Cu19      1.0  0.008749999280293042  0.003458393773753051  0.9987855041766694  1.0000
  Cu  Cu20      1.0  0.008749972291282104  0.006678292779242918  0.9993109319923033  1.0000
