data_image0
_chemical_formula_structural       Sn16V8CO
_chemical_formula_sum              "Sn16 V8 C1 O1"
_cell_length_a       5.561657905578613
_cell_length_b       10.587496222720807
_cell_length_c       104.29644775390625
_cell_angle_alpha    96.67759717000264
_cell_angle_beta     90.0
_cell_angle_gamma    90.0

_space_group_name_H-M_alt    "P 1"
_space_group_IT_number       1

loop_
  _space_group_symop_operation_xyz
  'x, y, z'

loop_
  _atom_site_type_symbol
  _atom_site_label
  _atom_site_symmetry_multiplicity
  _atom_site_fract_x
  _atom_site_fract_y
  _atom_site_fract_z
  _atom_site_occupancy
  Sn  Sn1       1.0  0.008749999973207339  0.004187235472066249  0.99941456114664  1.0000
  Sn  Sn2       1.0  0.008749999973207339  0.005851704191554477  0.9996882299379873  1.0000
  Sn  Sn3       1.0  0.0012499999363674314  0.000851704000253662  0.9996882302443352  1.0000
  Sn  Sn4       1.0  0.0012499999363674314  0.00918723584049745  0.9994145614138756  1.0000
  Sn  Sn5       1.0  0.008291922507995358  0.006288774124648278  1.5180104529459473e-05  1.0000
  Sn  Sn6       1.0  0.008748901474127893  0.008883259553001583  0.9998983906463688  1.0000
  Sn  Sn7       1.0  0.001252854526886842  0.003882789080529039  0.9998981750921436  1.0000
  Sn  Sn8       1.0  0.0017090381696386087  0.0012897032479114825  1.5223955797988742e-05  1.0000
  Sn  Sn9       1.0  0.0037268781617482774  0.006690927407762512  0.999836754703039  1.0000
  Sn  Sn10      1.0  0.003749999892829358  0.0033517040073388774  0.9992771849177156  1.0000
  Sn  Sn11      1.0  0.006249999598110093  0.008351704021509308  0.9992771848950232  1.0000
  Sn  Sn12      1.0  0.00627299908767776  0.0016915616975001636  0.9998368127902939  1.0000
  Sn  Sn13      1.0  0.003749999892829358  0.003760225482048581  0.9996204099518685  1.0000
  Sn  Sn14      1.0  0.003749999892829358  0.006278714535832916  0.9994823814226869  1.0000
  Sn  Sn15      1.0  0.006249999598110093  0.0012787142559669076  0.999482381442243  1.0000
  Sn  Sn16      1.0  0.006249999598110093  0.008760225496219012  0.9996204096434298  1.0000
  V   V1        1.0  0.008749999973207339  0.006933229729346132  0.9994465100180526  1.0000
  V   V2        1.0  0.003749999892829358  0.0006057099271893792  0.9992452360483939  1.0000
  V   V3        1.0  0.0012499999363674314  0.008105710302705795  0.9996562810480641  1.0000
  V   V4        1.0  0.006321933202768055  0.004393723092619205  0.9998453659722168  1.0000
  V   V5        1.0  0.003679198947892948  0.009394289924021098  0.9998454277893991  1.0000
  V   V6        1.0  0.008749999973207339  0.0031057099342745947  0.999656281352321  1.0000
  V   V7        1.0  0.006249999598110093  0.005605710118490195  0.9992452360277924  1.0000
  V   V8        1.0  0.0012499999363674314  0.0019332295380453167  0.9994465100386541  1.0000
  C   C1        1.0  0.004615928967019907  0.003322691467346521  5.1879236923405024e-05  1.0000
  O   O1        1.0  0.004615928967019907  0.003322691467346521  0.00016693554969797746  1.0000
