data_image0
_chemical_formula_structural       COCa10
_chemical_formula_sum              "C1 O1 Ca10"
_cell_length_a       6.859800640936176
_cell_length_b       7.66037222113197
_cell_length_c       107.95840454101562
_cell_angle_alpha    74.46674703488755
_cell_angle_beta     68.81148098954513
_cell_angle_gamma    90.00000020656628

_space_group_name_H-M_alt    "P 1"
_space_group_IT_number       1

loop_
  _space_group_symop_operation_xyz
  'x, y, z'

loop_
  _atom_site_type_symbol
  _atom_site_label
  _atom_site_symmetry_multiplicity
  _atom_site_fract_x
  _atom_site_fract_y
  _atom_site_fract_z
  _atom_site_occupancy
  C   C1        1.0  0.007992823164681714  0.0023218823358280554  0.9997723149930697  1.0000
  O   O1        1.0  0.007992823164681714  0.0023218823358280554  0.9998834685875033  1.0000
  Ca  Ca1       1.0  0.003857934016728745  0.00853127884333136  0.9997567889774212  1.0000
  Ca  Ca2       1.0  0.005824109645668541  0.0024998012464380734  0.9994209659771804  1.0000
  Ca  Ca3       1.0  0.009842556676797521  0.0005001986959382189  0.9995927301618222  1.0000
  Ca  Ca4       1.0  0.007824109577198661  0.006499800958065684  0.9990693636993662  1.0000
  Ca  Ca5       1.0  0.0018241097361844942  0.004499801356100813  0.9992451647643318  1.0000
  Ca  Ca6       1.0  0.004157443066950694  0.0074998012667459885  0.9994209662140213  1.0000
  Ca  Ca7       1.0  0.006157443320341977  0.0014998013185311707  0.9990693637677613  1.0000
  Ca  Ca8       1.0  0.00015744309434433744  0.00949980086871086  0.9992451650122696  1.0000
  Ca  Ca9       1.0  0.0081867427720994  0.0054995112615998  0.9995926234105191  1.0000
  Ca  Ca10      1.0  0.0023027997574036107  0.0035331065353534155  0.9997567435968506  1.0000
