data_image0
_chemical_formula_structural       COPt30Si6Sn6
_chemical_formula_sum              "C1 O1 Pt30 Si6 Sn6"
_cell_length_a       9.012827965942092
_cell_length_b       8.195989350805648
_cell_length_c       101.51521301269531
_cell_angle_alpha    90.4856544283041
_cell_angle_beta     93.27891850864376
_cell_angle_gamma    63.90471203199288

_space_group_name_H-M_alt    "P 1"
_space_group_IT_number       1

loop_
  _space_group_symop_operation_xyz
  'x, y, z'

loop_
  _atom_site_type_symbol
  _atom_site_label
  _atom_site_symmetry_multiplicity
  _atom_site_fract_x
  _atom_site_fract_y
  _atom_site_fract_z
  _atom_site_occupancy
  C   C1        1.0  0.007528784935074838  0.008271668591833556  0.0001492588882294229  1.0000
  O   O1        1.0  0.007528784935074838  0.008271668591833556  0.00026746801139990146  1.0000
  Pt  Pt1       1.0  0.0035710723716646272  0.004045649759153029  0.999919341169946  1.0000
  Pt  Pt2       1.0  0.009682184057571243  0.003490094057165473  0.9997468698787872  1.0000
  Pt  Pt3       1.0  0.00579329457237044  0.002934538666519513  0.9995743987521681  1.0000
  Pt  Pt4       1.0  0.00198448347589934  0.007898794449242562  0.9998489765202192  1.0000
  Pt  Pt5       1.0  0.008095594470207086  0.007343238626896906  0.9996765052254661  1.0000
  Pt  Pt6       1.0  0.005873372500034229  0.008454349608135677  2.1447350763433618e-05  1.0000
  Pt  Pt7       1.0  0.006626628329884413  0.003767871625190711  0.9998331052311833  1.0000
  Pt  Pt8       1.0  0.002737739075216567  0.003212316577692341  0.9996606343995447  1.0000
  Pt  Pt9       1.0  0.0005155168168775147  0.004323427698174544  5.576523473916646e-06  1.0000
  Pt  Pt10      1.0  0.005040038742520257  0.007621016649464478  0.9997627405781733  1.0000
  Pt  Pt11      1.0  0.0011511499489183232  0.007065460924634285  0.9995902691612625  1.0000
  Pt  Pt12      1.0  0.008928927766655147  0.008176571808357595  0.9999352119958674  1.0000
  Pt  Pt13      1.0  0.005000000239754275  0.009861110946776061  0.999539216201426  1.0000
  Pt  Pt14      1.0  0.0027777778085155054  0.0009722223962571816  0.9998841584839668  1.0000
  Pt  Pt15      1.0  0.008888888802823252  0.0004166668011826929  0.9997116871893693  1.0000
  Pt  Pt16      1.0  0.0019044057787685064  0.002378983168960486  0.9994019273354129  1.0000
  Pt  Pt17      1.0  0.008015517464675121  0.0018234272397017633  0.9992294563376736  1.0000
  Pt  Pt18      1.0  0.004126627979474319  0.0012678720763269705  0.999056984917635  1.0000
  Pt  Pt19      1.0  0.0003178166236536433  0.00623212775709794  0.9993315626842992  1.0000
  Pt  Pt20      1.0  0.006428927877310966  0.00567657226397553  0.9991590913910885  1.0000
  Pt  Pt21      1.0  0.004206705446072196  0.006787683468003791  0.999504033807772  1.0000
  Pt  Pt22      1.0  0.00495996127592238  0.0021012054850588252  0.9993156919817667  1.0000
  Pt  Pt23      1.0  0.001071072367053968  0.0015456498159260041  0.9991432205643088  1.0000
  Pt  Pt24      1.0  0.008848850761123182  0.002656760875704785  0.999488163108386  1.0000
  Pt  Pt25      1.0  0.0033733723801570924  0.005954350175148358  0.999245327038465  1.0000
  Pt  Pt26      1.0  0.009484483604997795  0.005398794241407958  0.9990728557448064  1.0000
  Pt  Pt27      1.0  0.007262261173759026  0.006509905445436219  0.9994177981614898  1.0000
  Pt  Pt28      1.0  0.003333333416325198  0.00819444469524943  0.999021802659529  1.0000
  Pt  Pt29      1.0  0.0011111111003529065  0.00930555493449565  0.9993667450761374  1.0000
  Pt  Pt30      1.0  0.007222222209927132  0.00874999996553729  0.9991942737825538  1.0000
  Si  Si1       1.0  0.004722222320582951  0.006249999512070559  0.999970393966077  1.0000
  Si  Si2       1.0  0.0008333334117145385  0.005694444297480071  0.99979792313608  1.0000
  Si  Si3       1.0  0.00694444475182172  0.005138888308042298  0.9996254518429686  1.0000
  Si  Si4       1.0  0.00305555572768683  0.004583333149149183  0.9994529807188494  1.0000
  Si  Si5       1.0  0.009166667183060489  0.004027777104014038  0.9992805094262851  1.0000
  Si  Si6       1.0  0.005277778158925599  0.0034722219451209222  0.9991080383021659  1.0000
  Sn  Sn1       1.0  0.005833333536202335  0.0006944443736896089  0.9997979231312597  1.0000
  Sn  Sn2       1.0  0.001944444512067445  0.00013888887388974335  0.9996254517133323  1.0000
  Sn  Sn3       1.0  0.009722222099271313  0.0012499999826433806  0.9999703939597706  1.0000
  Sn  Sn4       1.0  0.004166666943306214  0.009027777765315373  0.9992805094310248  1.0000
  Sn  Sn5       1.0  0.00027777780390484617  0.008472221753034963  0.9991080383057361  1.0000
  Sn  Sn6       1.0  0.008055555506375192  0.00958333314699798  0.9994529805529551  1.0000
