data_image0
_chemical_formula_structural       HCa12
_chemical_formula_sum              "H1 Ca12"
_cell_length_a       7.921015173893309
_cell_length_b       6.5571088790893555
_cell_length_c       105.64456939697266
_cell_angle_alpha    90.0
_cell_angle_beta     120.00000037047248
_cell_angle_gamma    90.0

_space_group_name_H-M_alt    "P 1"
_space_group_IT_number       1

loop_
  _space_group_symop_operation_xyz
  'x, y, z'

loop_
  _atom_site_type_symbol
  _atom_site_label
  _atom_site_symmetry_multiplicity
  _atom_site_fract_x
  _atom_site_fract_y
  _atom_site_fract_z
  _atom_site_occupancy
  H   H1        1.0  0.002359377287373096  0.00166673279510545  0.0003068501439380662  1.0000
  Ca  Ca1       1.0  0.0033703177233782963  0.0033332673128392506  0.999381029442778  1.0000
  Ca  Ca2       1.0  0.0017036510404197986  0.00833326727875145  0.9995059927466123  1.0000
  Ca  Ca3       1.0  0.0033703177233782963  0.0033332673128392506  0.9997559193335452  1.0000
  Ca  Ca4       1.0  0.0017036510404197986  0.00833326727875145  0.9998808829194795  1.0000
  Ca  Ca5       1.0  0.0033305284556511853  0.0033335067796362427  0.00012485812986098057  1.0000
  Ca  Ca6       1.0  0.001629682461262457  0.008333184899900765  0.00024487871142381143  1.0000
  Ca  Ca7       1.0  0.00837031763648853  0.0033332673128392506  0.9993810294169526  1.0000
  Ca  Ca8       1.0  0.006703651360825812  0.00833326727875145  0.999505992736056  1.0000
  Ca  Ca9       1.0  0.00837031763648853  0.0033332673128392506  0.9997559193077199  1.0000
  Ca  Ca10      1.0  0.006703651360825812  0.00833326727875145  0.9998808826268233  1.0000
  Ca  Ca11      1.0  0.00833052864029194  0.0033335067796362427  0.0001248578321150837  1.0000
  Ca  Ca12      1.0  0.006629682645903211  0.008333184899900765  0.00024487897787771307  1.0000
