data_image0
_chemical_formula_structural       COCa20Si12
_chemical_formula_sum              "C1 O1 Ca20 Si12"
_cell_length_a       7.724928379058838
_cell_length_b       7.724928379058838
_cell_length_c       114.83318328857422
_cell_angle_alpha    90.0
_cell_angle_beta     90.0
_cell_angle_gamma    90.0

_space_group_name_H-M_alt    "P 1"
_space_group_IT_number       1

loop_
  _space_group_symop_operation_xyz
  'x, y, z'

loop_
  _atom_site_type_symbol
  _atom_site_label
  _atom_site_symmetry_multiplicity
  _atom_site_fract_x
  _atom_site_fract_y
  _atom_site_fract_z
  _atom_site_occupancy
  C   C1        1.0  0.009465422048932403  0.006069142495788209  0.00015082936139226778  1.0000
  O   O1        1.0  0.009465422048932403  0.006069142495788209  0.0002553289840191105  1.0000
  Ca  Ca1       1.0  0.008735302747181558  0.006799278676033462  0.9989835055582814  1.0000
  Ca  Ca2       1.0  0.007333853386430132  0.0017992784879588089  0.9989835055582814  1.0000
  Ca  Ca3       1.0  0.0037353024385462317  0.008200728036784887  0.9989835055582814  1.0000
  Ca  Ca4       1.0  0.00874202038795584  0.0032074513969575598  0.9999999968856749  1.0000
  Ca  Ca5       1.0  0.0023338533189161542  0.0032007277281495606  0.9989835055582814  1.0000
  Ca  Ca6       1.0  0.00732712851201539  0.008207440855132196  0.9999999958475665  1.0000
  Ca  Ca7       1.0  0.0037420164625002836  0.0017925449331755137  0.999999997404729  1.0000
  Ca  Ca8       1.0  0.0023271171117980236  0.006792535476396219  0.0  1.0000
  Ca  Ca9       1.0  0.0005345778449742039  3.149999902455018e-09  0.9991657216074037  1.0000
  Ca  Ca10      1.0  0.0005345828482421892  0.009999996759329074  0.9998088728285679  1.0000
  Ca  Ca11      1.0  0.0037353024385462317  0.0017992784879588089  0.9996342059035646  1.0000
  Ca  Ca12      1.0  0.0023338533189161542  0.006799278676033462  0.9996342059035646  1.0000
  Ca  Ca13      1.0  0.008735302747181558  0.0032007277281495606  0.9996342059035646  1.0000
  Ca  Ca14      1.0  0.0037353024385462317  0.008200728036784887  0.9993479381755802  1.0000
  Ca  Ca15      1.0  0.007333853386430132  0.008200728036784887  0.9996342059035646  1.0000
  Ca  Ca16      1.0  0.0023338533189161542  0.0032007277281495606  0.9993479381755802  1.0000
  Ca  Ca17      1.0  0.008735302747181558  0.006799278676033462  0.9993479381755802  1.0000
  Ca  Ca18      1.0  0.007333853386430132  0.0017992784879588089  0.9993479381755802  1.0000
  Ca  Ca19      1.0  0.005534566820906143  0.0050000032020915105  0.9998088717904595  1.0000
  Ca  Ca20      1.0  0.005534577912488182  0.0050000032020915105  0.9991657216074037  1.0000
  Si  Si1       1.0  0.006658230402937616  0.0011236615325000098  0.9998225976594227  1.0000
  Si  Si2       1.0  0.0094109209082471  0.006123661479453314  0.9998225971403686  1.0000
  Si  Si3       1.0  0.00666127769454226  0.008873303246430063  0.9991657216074037  1.0000
  Si  Si4       1.0  0.009407877956826733  0.003873303178916084  0.9991657216074037  1.0000
  Si  Si5       1.0  0.005534577912488182  0.0050000032020915105  0.9988403716942892  1.0000
  Si  Si6       1.0  0.0005345778449742039  3.149999902455018e-09  0.9988403716942892  1.0000
  Si  Si7       1.0  0.0016612777475889563  0.006126702984145589  0.9991657216074037  1.0000
  Si  Si8       1.0  0.004407878130434104  0.0011267030371922852  0.9991657216074037  1.0000
  Si  Si9       1.0  0.0016582408242023059  0.003876342272394873  0.9998225976594227  1.0000
  Si  Si10      1.0  0.004410909990272432  0.008876338481967273  0.9998225976594227  1.0000
  Si  Si11      1.0  0.0005345778449742039  3.149999902455018e-09  0.9994910720395723  1.0000
  Si  Si12      1.0  0.005534577912488182  0.0050000032020915105  0.9994910720395723  1.0000
