data_image0
_chemical_formula_structural       COCa16In8Na8
_chemical_formula_sum              "C1 O1 Ca16 In8 Na8"
_cell_length_a       5.704753875732422
_cell_length_b       13.973735809326172
_cell_length_c       109.52369689941406
_cell_angle_alpha    90.0
_cell_angle_beta     90.0
_cell_angle_gamma    90.0

_space_group_name_H-M_alt    "P 1"
_space_group_IT_number       1

loop_
  _space_group_symop_operation_xyz
  'x, y, z'

loop_
  _atom_site_type_symbol
  _atom_site_label
  _atom_site_symmetry_multiplicity
  _atom_site_fract_x
  _atom_site_fract_y
  _atom_site_fract_z
  _atom_site_occupancy
  C   C1        1.0  0.009999996682683403  0.009862349483269911  0.00014315951597611786  1.0000
  O   O1        1.0  0.009999996682683403  0.009862349483269911  0.0002527245238581198  1.0000
  Ca  Ca1       1.0  1.849999932133176e-09  0.00601482603355572  0.9990711986537902  1.0000
  Ca  Ca2       1.0  1.849999932133176e-09  0.0026814927393225903  0.9993719225623786  1.0000
  Ca  Ca3       1.0  1.849999932133176e-09  0.009348159061196555  0.9996726470151838  1.0000
  Ca  Ca4       1.0  0.00999998688745723  0.00593498324077135  0.9999623189673428  1.0000
  Ca  Ca5       1.0  0.005000001606417092  0.004348159253143007  0.9992215608801929  1.0000
  Ca  Ca6       1.0  0.005000001606417092  0.0010148260255579515  0.9995222847887811  1.0000
  Ca  Ca7       1.0  0.004999996382296467  0.007681652236160814  0.9998168263935958  1.0000
  Ca  Ca8       1.0  0.005000001606417092  0.007681492813968432  0.9989208366994962  1.0000
  Ca  Ca9       1.0  0.005000001606417092  0.00601482603355572  0.9995222847887811  1.0000
  Ca  Ca10      1.0  0.005000008136567875  0.002582982887453383  0.9998321466430264  1.0000
  Ca  Ca11      1.0  0.005000001606417092  0.0026814927393225903  0.9989208366994962  1.0000
  Ca  Ca12      1.0  0.005000001606417092  0.009348159061196555  0.9992215608801929  1.0000
  Ca  Ca13      1.0  1.849999932133176e-09  0.004348159253143007  0.9996726470151838  1.0000
  Ca  Ca14      1.0  0.009999997988713559  0.0011214454150953786  0.9999700305205534  1.0000
  Ca  Ca15      1.0  1.849999932133176e-09  0.0010148260255579515  0.9990711986537902  1.0000
  Ca  Ca16      1.0  1.849999932133176e-09  0.007681492813968432  0.9993719225623786  1.0000
  In  In1       1.0  0.005000001606417092  0.006848159423762076  0.9992215608801929  1.0000
  In  In2       1.0  0.005000001606417092  0.0035148261295289466  0.9995222847887811  1.0000
  In  In3       1.0  0.0050000009534020146  0.00013765044941553242  0.9998285450157048  1.0000
  In  In4       1.0  0.005000001606417092  0.0001814926520136138  0.9989208366994962  1.0000
  In  In5       1.0  1.849999932133176e-09  0.0035148261295289466  0.9990711986537902  1.0000
  In  In6       1.0  1.849999932133176e-09  0.0001814926520136138  0.9993719225623786  1.0000
  In  In7       1.0  1.849999932133176e-09  0.006848159423762076  0.9996726470151838  1.0000
  In  In8       1.0  0.009999992764592933  0.0035171265544420875  0.9999430003564839  1.0000
  Na  Na1       1.0  1.849999932133176e-09  0.005181492643349364  0.9993719225623786  1.0000
  Na  Na2       1.0  1.849999932133176e-09  0.001848159349116234  0.9996726470151838  1.0000
  Na  Na3       1.0  0.009999995376653246  0.008603253802041204  0.0  1.0000
  Na  Na4       1.0  1.849999932133176e-09  0.008514826204174788  0.9990711986537902  1.0000
  Na  Na5       1.0  0.005000001606417092  0.005181492643349364  0.9989208366994962  1.0000
  Na  Na6       1.0  0.005000001606417092  0.001848159349116234  0.9992215608801929  1.0000
  Na  Na7       1.0  0.005000001606417092  0.008514826204174788  0.9995222847887811  1.0000
  Na  Na8       1.0  0.004999990831668302  0.004966048212922224  0.9998439860812832  1.0000
