data_image0
_chemical_formula_structural       COCd12
_chemical_formula_sum              "C1 O1 Cd12"
_cell_length_a       5.312955379486084
_cell_length_b       6.791827101035609
_cell_length_c       100.67436218261719
_cell_angle_alpha    103.05099538724912
_cell_angle_beta     90.0
_cell_angle_gamma    66.97525881272327

_space_group_name_H-M_alt    "P 1"
_space_group_IT_number       1

loop_
  _space_group_symop_operation_xyz
  'x, y, z'

loop_
  _atom_site_type_symbol
  _atom_site_label
  _atom_site_symmetry_multiplicity
  _atom_site_fract_x
  _atom_site_fract_y
  _atom_site_fract_z
  _atom_site_occupancy
  C   C1        1.0  0.004902553332217039  0.007553300263808641  0.00024540804020758386  1.0000
  O   O1        1.0  0.004902553332217039  0.007553300263808641  0.000364604467764063  1.0000
  Cd  Cd1       1.0  0.00041338882528005756  0.002607136911471643  0.9993925045434097  1.0000
  Cd  Cd2       1.0  0.005413389000572811  0.002607136911471643  0.999240160204316  1.0000
  Cd  Cd3       1.0  0.004580055513547829  0.00760713721885494  0.9994686767768446  1.0000
  Cd  Cd4       1.0  0.009580055513547828  0.00760713721885494  0.9993163324377511  1.0000
  Cd  Cd5       1.0  0.00041338882528005756  0.002607136911471643  0.9996971935176238  1.0000
  Cd  Cd6       1.0  0.005413389000572811  0.002607136911471643  0.9995448491785301  1.0000
  Cd  Cd7       1.0  0.004580055513547829  0.00760713721885494  0.9997733657510588  1.0000
  Cd  Cd8       1.0  0.009580055513547828  0.00760713721885494  0.9996210214119652  1.0000
  Cd  Cd9       1.0  0.00031238897623570954  0.0022435073885108485  3.417859160097158e-05  1.0000
  Cd  Cd10      1.0  0.005119911393738641  0.0024960216916704537  0.9998860423208149  1.0000
  Cd  Cd11      1.0  0.005253218964600386  0.006851968999041947  6.793793024449115e-05  1.0000
  Cd  Cd12      1.0  0.009687610607133513  0.007756492918872449  0.9999512575985802  1.0000
