data_image0
_chemical_formula_structural       COTi4Sn2Ti4Sn2
_chemical_formula_sum              "C1 O1 Ti8 Sn4"
_cell_length_a       4.77939902496948
_cell_length_b       4.7793989181518555
_cell_length_c       104.03716278076172
_cell_angle_alpha    90.0
_cell_angle_beta     90.0
_cell_angle_gamma    119.9999992606814

_space_group_name_H-M_alt    "P 1"
_space_group_IT_number       1

loop_
  _space_group_symop_operation_xyz
  'x, y, z'

loop_
  _atom_site_type_symbol
  _atom_site_label
  _atom_site_symmetry_multiplicity
  _atom_site_fract_x
  _atom_site_fract_y
  _atom_site_fract_z
  _atom_site_occupancy
  C   C1        1.0  0.006665852164998787  0.0008330023280489359  0.00015142650981834666  1.0000
  O   O1        1.0  0.006665852164998787  0.0008330023280489359  0.0002667701427851819  1.0000
  Ti  Ti1       1.0  0.0049996062555916964  0.002499879552799084  0.9999698857710112  1.0000
  Ti  Ti2       1.0  0.008333845929487084  0.009166997682576082  0.9997184508938567  1.0000
  Ti  Ti3       1.0  0.0016661545565282328  0.005833154334439006  0.9995748796471258  1.0000
  Ti  Ti4       1.0  0.0016673620570809222  0.005833756525820451  0.9998452517182189  1.0000
  Sn  Sn1       1.0  0.005001327109822008  0.0025007379799160223  0.9997077195881247  1.0000
  Sn  Sn2       1.0  0.008332098974434241  0.009166126153668287  0.0  1.0000
  Ti  Ti5       1.0  0.004999487901861944  0.0024998207759338513  0.9994385618143193  1.0000
  Ti  Ti6       1.0  0.008332821697209837  0.00916648790477981  0.9991659255757896  1.0000
  Ti  Ti7       1.0  0.0016661545565282328  0.005833154334439006  0.9990296074565249  1.0000
  Ti  Ti8       1.0  0.0016661545565282328  0.005833154334439006  0.9993022436950545  1.0000
  Sn  Sn3       1.0  0.004999487901861944  0.0024998207759338513  0.9991659255757896  1.0000
  Sn  Sn4       1.0  0.008332821697209837  0.00916648790477981  0.9994385618143193  1.0000
