data_image0
_chemical_formula_structural       HAl12Au12
_chemical_formula_sum              "H1 Al12 Au12"
_cell_length_a       6.4900121373506625
_cell_length_b       9.411754590307877
_cell_length_c       99.20366668701172
_cell_angle_alpha    105.20817747980875
_cell_angle_beta     92.20009066260388
_cell_angle_gamma    88.29350567469582

_space_group_name_H-M_alt    "P 1"
_space_group_IT_number       1

loop_
  _space_group_symop_operation_xyz
  'x, y, z'

loop_
  _atom_site_type_symbol
  _atom_site_label
  _atom_site_symmetry_multiplicity
  _atom_site_fract_x
  _atom_site_fract_y
  _atom_site_fract_z
  _atom_site_occupancy
  H   H1        1.0  0.004347347144208755  0.007665362450375898  0.00019080365298932984  1.0000
  Al  Al1       1.0  0.008202866601909156  0.007361773560072641  0.9996539324116889  1.0000
  Al  Al2       1.0  0.00825473804019608  0.0036938108856576883  0.00011266223220141211  1.0000
  Al  Al3       1.0  0.008132019613626354  0.0006470430894358415  0.9998978078446804  1.0000
  Al  Al4       1.0  0.0017971337986135464  0.006025507112004614  0.999482641722675  1.0000
  Al  Al5       1.0  0.00196920230651131  0.0030123873962579393  0.9999690656318467  1.0000
  Al  Al6       1.0  0.001797133826829343  0.009358840396106386  0.9997279592751909  1.0000
  Al  Al7       1.0  0.003193383929929704  0.00612161409602292  0.9998364719149352  1.0000
  Al  Al8       1.0  0.0031933839075855815  0.002788280606789639  0.9995911546577444  1.0000
  Al  Al9       1.0  0.003569989365215864  0.00940099984445452  9.27303520226611e-05  1.0000
  Al  Al10      1.0  0.006863859893344625  0.007366913335173413  3.705315093196415e-05  1.0000
  Al  Al11      1.0  0.006806616287027096  0.003932333702215583  0.9997907369411955  1.0000
  Al  Al12      1.0  0.00680661655189649  0.0005990002129823026  0.999545419684726  1.0000
  Au  Au1       1.0  0.0047784112485813645  0.008168147985297435  0.9995352415879685  1.0000
  Au  Au2       1.0  0.0049553370056384565  0.004932136063749911  2.7634221575896337e-05  1.0000
  Au  Au3       1.0  0.0047784111921497716  0.0015014814170938916  0.9997805590478145  1.0000
  Au  Au4       1.0  0.005221589008334581  0.005219132686779821  0.9996013325460348  1.0000
  Au  Au5       1.0  0.005129100222931303  0.0019863193808591466  9.757280570460211e-05  1.0000
  Au  Au6       1.0  0.005221589323763893  0.008552465970881593  0.9998466497988564  1.0000
  Au  Au7       1.0  3.182600417642563e-05  0.00856503642978067  0.9994768235387731  1.0000
  Au  Au8       1.0  0.00010304560449455158  0.005550025401516868  4.783565766836215e-06  1.0000
  Au  Au9       1.0  3.182600159736677e-05  0.0018983698615771263  0.9997221409987543  1.0000
  Au  Au10      1.0  0.00996817441429712  0.004822244242296586  0.9996597505956359  1.0000
  Au  Au11      1.0  0.0005706169031882451  0.0013677016211021337  0.00011425248078981734  1.0000
  Au  Au12      1.0  0.0001732243134919086  0.00821267054863443  0.9999170460135343  1.0000
