data_image0
_chemical_formula_structural       COAs4Ca2Cu8As4Ca2Cu8
_chemical_formula_sum              "C1 O1 As8 Ca4 Cu16"
_cell_length_a       8.01870762765309
_cell_length_b       8.447947622593334
_cell_length_c       99.14353942871094
_cell_angle_alpha    94.15577968621346
_cell_angle_beta     97.03351842811688
_cell_angle_gamma    74.72913911209632

_space_group_name_H-M_alt    "P 1"
_space_group_IT_number       1

loop_
  _space_group_symop_operation_xyz
  'x, y, z'

loop_
  _atom_site_type_symbol
  _atom_site_label
  _atom_site_symmetry_multiplicity
  _atom_site_fract_x
  _atom_site_fract_y
  _atom_site_fract_z
  _atom_site_occupancy
  C   C1        1.0  0.00014015090547977652  0.00018990390239233637  0.00015744845703676306  1.0000
  O   O1        1.0  0.00014015090547977652  0.00018990390239233637  0.00027848533334602247  1.0000
  As  As1       1.0  0.0035198723273044286  0.004677397837914768  0.9995640615148906  1.0000
  As  As2       1.0  0.007711914214051  0.0009751257096893018  0.9993826793157254  1.0000
  As  As3       1.0  0.004443636650362293  0.002283592137715033  0.9999624877663887  1.0000
  As  As4       1.0  0.008961914620931833  0.003475125460552268  0.9997501204624266  1.0000
  Ca  Ca1       1.0  0.006240893231927159  0.0015762616461516732  0.9996570911741146  1.0000
  Ca  Ca2       1.0  0.0072618279638393445  0.004114855211244426  5.017766524177339e-06  1.0000
  Cu  Cu1       1.0  0.00038758741660337924  0.0004945152368476374  0.9996040939373415  1.0000
  Cu  Cu2       1.0  0.002432209380830602  0.0023524400548874747  0.9994501568949027  1.0000
  Cu  Cu3       1.0  0.002094199182877884  0.0026580080070437322  0.9997100881774658  1.0000
  Cu  Cu4       1.0  0.008799577887097744  0.0033000828741341793  0.9994965839390895  1.0000
  Cu  Cu5       1.0  0.001216401616547628  0.003093398851270566  0.9999693919961535  1.0000
  Cu  Cu6       1.0  0.0037975929577003273  0.004810096277736513  0.9998047410765494  1.0000
  Cu  Cu7       1.0  0.002767595681786885  0.0002592167926670629  2.9010170181272315e-05  1.0000
  Cu  Cu8       1.0  0.00985984927676893  0.0008535940090324245  0.9998751885457526  1.0000
  As  As5       1.0  0.0035198723273044286  0.009677397519579469  0.9995640617383732  1.0000
  As  As6       1.0  0.007711914214051  0.005975126054552541  0.9993826792427056  1.0000
  As  As7       1.0  0.004443636650362293  0.007283592482578273  0.9999624876933688  1.0000
  As  As8       1.0  0.008961914620931833  0.008475126026481688  0.9997501203907718  1.0000
  Ca  Ca3       1.0  0.006240893231927159  0.006576261548882554  0.9996570910983645  1.0000
  Ca  Ca4       1.0  0.0072618279638393445  0.009114855335041487  5.01769213919095e-06  1.0000
  Cu  Cu9       1.0  0.00038758741660337924  0.005494515305378153  0.9996040938626153  1.0000
  Cu  Cu10      1.0  0.002432209380830602  0.007352440399750715  0.9994501568218829  1.0000
  Cu  Cu11      1.0  0.002094199182877884  0.007658008130840792  0.9997100881030807  1.0000
  Cu  Cu12      1.0  0.008799577887097744  0.00830008299793124  0.9994965841653022  1.0000
  Cu  Cu13      1.0  0.001216401616547628  0.008093399196133805  0.9999693919231336  1.0000
  Cu  Cu14      1.0  0.0037975929577003273  0.009810096843665931  0.9998047410048945  1.0000
  Cu  Cu15      1.0  0.002767595681786885  0.005259217137530302  2.901009716136597e-05  1.0000
  Cu  Cu16      1.0  0.00985984927676893  0.005853594353895664  0.9998751884727327  1.0000
