data_image0
_chemical_formula_structural       Co6Sb12H
_chemical_formula_sum              "Co6 Sb12 H1"
_cell_length_a       6.617924428140651
_cell_length_b       7.315856748918722
_cell_length_c       107.01004791259766
_cell_angle_alpha    63.5953138937037
_cell_angle_beta     70.56183744891037
_cell_angle_gamma    76.00381273661212

_space_group_name_H-M_alt    "P 1"
_space_group_IT_number       1

loop_
  _space_group_symop_operation_xyz
  'x, y, z'

loop_
  _atom_site_type_symbol
  _atom_site_label
  _atom_site_symmetry_multiplicity
  _atom_site_fract_x
  _atom_site_fract_y
  _atom_site_fract_z
  _atom_site_occupancy
  Co  Co1       1.0  0.006773335914575217  0.006851548200750281  0.9991390279751299  1.0000
  Co  Co2       1.0  0.00033933659568240865  0.00033418289350436867  0.9996834587485847  1.0000
  Co  Co3       1.0  0.0034400029789055995  0.0035182146652885443  0.9994272413498568  1.0000
  Co  Co4       1.0  0.006784280588003289  0.006986007256266279  0.9995555893207405  1.0000
  Co  Co5       1.0  0.00010666969482552924  0.0001848813979806448  0.999283134925813  1.0000
  Co  Co6       1.0  0.0034400029789055995  0.0035182146652885443  0.998994921552068  1.0000
  Sb  Sb1       1.0  0.006924221198288243  0.008560315978957801  0.9992998209178153  1.0000
  Sb  Sb2       1.0  0.00025755476732370225  0.0018936489080343284  0.9990116080832094  1.0000
  Sb  Sb3       1.0  0.003669685507090108  0.005157843374388983  0.9995977084483871  1.0000
  Sb  Sb4       1.0  0.00989332965157336  0.008381756128911509  0.9995621328705737  1.0000
  Sb  Sb5       1.0  0.00328911794359629  0.001809447316127163  0.9992664483890147  1.0000
  Sb  Sb6       1.0  0.006622451161045032  0.005142780994604279  0.9989782350041403  1.0000
  Sb  Sb7       1.0  0.00926320468931934  0.0038414005341901305  0.9995263344008951  1.0000
  Sb  Sb8       1.0  0.00263650146024057  0.007135755799989866  0.9992382346730072  1.0000
  Sb  Sb9       1.0  0.005969834792605052  0.0004690888005740825  0.9989500212172577  1.0000
  Sb  Sb10      1.0  0.004225178659603303  0.009815119190527641  0.9996146328032893  1.0000
  Sb  Sb11      1.0  0.007576837399864838  0.003234007352079719  0.9993280352009706  1.0000
  Sb  Sb12      1.0  0.0009101711568622948  0.006567340601510696  0.9990398218848762  1.0000
  H   H1        1.0  0.008023742672036724  0.005413703609197446  0.9996811360449174  1.0000
