data_image0
_chemical_formula_structural       COAg4Au12Ag4Au12
_chemical_formula_sum              "C1 O1 Ag8 Au24"
_cell_length_a       4.895831108093262
_cell_length_b       10.230254173278809
_cell_length_c       105.43864440917969
_cell_angle_alpha    90.0
_cell_angle_beta     90.0
_cell_angle_gamma    90.0

_space_group_name_H-M_alt    "P 1"
_space_group_IT_number       1

loop_
  _space_group_symop_operation_xyz
  'x, y, z'

loop_
  _atom_site_type_symbol
  _atom_site_label
  _atom_site_symmetry_multiplicity
  _atom_site_fract_x
  _atom_site_fract_y
  _atom_site_fract_z
  _atom_site_occupancy
  C   C1        1.0  0.007500000821783561  0.0029971946923190293  9.58502947962432e-05  1.0000
  O   O1        1.0  0.007500000821783561  0.0029971946923190293  0.00020966022455483894  1.0000
  Ag  Ag1       1.0  0.0025000000837001775  0.0033333335226884485  0.9994429986263078  1.0000
  Ag  Ag2       1.0  0.0025000000837001775  0.008333333624648895  0.9991629094416888  1.0000
  Ag  Ag3       1.0  0.007500000060872856  0.006666667045376897  0.9994429986263078  1.0000
  Ag  Ag4       1.0  0.007500000060872856  0.0016666667613442242  0.9991629094416888  1.0000
  Au  Au1       1.0  0.007500000060872856  0.004164008557825766  0.9993034007636656  1.0000
  Au  Au2       1.0  0.007500000060872856  0.00916400829564176  0.9990233118616975  1.0000
  Au  Au3       1.0  0.007500000060872856  0.0016719836344860387  0.9994429986263078  1.0000
  Au  Au4       1.0  0.007500000060872856  0.006671983554374259  0.9991629094416888  1.0000
  Au  Au5       1.0  0.007500000060872856  0.004164008557825766  0.9990224184023629  1.0000
  Au  Au6       1.0  0.007500000060872856  0.00916400829564176  0.9993025073043311  1.0000
  Au  Au7       1.0  0.0025000000837001775  0.005835992010239579  0.9990224184023629  1.0000
  Au  Au8       1.0  0.0025000000837001775  0.0008359919082791324  0.9993025073043311  1.0000
  Au  Au9       1.0  0.0025000000837001775  0.008328017115651532  0.9994429986263078  1.0000
  Au  Au10      1.0  0.0025000000837001775  0.0033280166495466335  0.9991629094416888  1.0000
  Au  Au11      1.0  0.0025000000837001775  0.005835992010239579  0.9993034007636656  1.0000
  Au  Au12      1.0  0.0025000000837001775  0.0008359919082791324  0.9990233118616975  1.0000
  Ag  Ag5       1.0  0.002500000654383206  0.0032671790359720186  0.0  1.0000
  Ag  Ag6       1.0  0.002500000844610882  0.008342081102671815  0.9997185984674879  1.0000
  Ag  Ag7       1.0  0.007500000060872856  0.006732822624526682  0.0  1.0000
  Ag  Ag8       1.0  0.007500000060872856  0.0016579187371046254  0.9997185984674879  1.0000
  Au  Au13      1.0  0.007500000821783561  0.0042388620913530175  0.9998749778763527  1.0000
  Au  Au14      1.0  0.007500000060872856  0.00916400829564176  0.9995834896656337  1.0000
  Au  Au15      1.0  0.007500000821783561  0.0017555271112128152  0.9999881806720871  1.0000
  Au  Au16      1.0  0.007500000821783561  0.0066584992853213594  0.9997225962810999  1.0000
  Au  Au17      1.0  0.007500000060872856  0.004164008557825766  0.9995825964889501  1.0000
  Au  Au18      1.0  0.007500000060872856  0.009208488540438188  0.9998743537832775  1.0000
  Au  Au19      1.0  0.0025000000837001775  0.005835992010239579  0.9995825964889501  1.0000
  Au  Au20      1.0  0.00250000046415553  0.000791511936591043  0.9998743537832775  1.0000
  Au  Au21      1.0  0.0024999997032448254  0.008244473638924756  0.9999881806720871  1.0000
  Au  Au22      1.0  0.0025000000837001775  0.0033415009185995335  0.9997225962810999  1.0000
  Au  Au23      1.0  0.00250000046415553  0.005761139569145683  0.999874977311051  1.0000
  Au  Au24      1.0  0.0025000000837001775  0.0008359919082791324  0.9995834896656337  1.0000
