data_image0
_chemical_formula_structural       COCu4W2Se8
_chemical_formula_sum              "C1 O1 Cu4 W2 Se8"
_cell_length_a       5.66095495223999
_cell_length_b       5.66095495223999
_cell_length_c       104.55216979980469
_cell_angle_alpha    90.0
_cell_angle_beta     90.0
_cell_angle_gamma    90.0

_space_group_name_H-M_alt    "P 1"
_space_group_IT_number       1

loop_
  _space_group_symop_operation_xyz
  'x, y, z'

loop_
  _atom_site_type_symbol
  _atom_site_label
  _atom_site_symmetry_multiplicity
  _atom_site_fract_x
  _atom_site_fract_y
  _atom_site_fract_z
  _atom_site_occupancy
  C   C1        1.0  0.009279603512559886  0.006854356397169682  0.00016153122108935423  1.0000
  O   O1        1.0  0.009279603512559886  0.006854356397169682  0.0002763061199463334  1.0000
  Cu  Cu1       1.0  0.0025000001250328192  0.005895396790677603  0.9988891726288546  1.0000
  Cu  Cu2       1.0  0.00750000021058159  0.0008953965406119653  0.9988891726288546  1.0000
  Cu  Cu3       1.0  0.00750000021058159  0.0008953965406119653  0.9994399691169176  1.0000
  Cu  Cu4       1.0  0.0025000001250328192  0.005895396790677603  0.9994399691169176  1.0000
  W   W1        1.0  0.0025000001250328192  0.0008953965406119653  0.9988891726288546  1.0000
  W   W2        1.0  0.00750000021058159  0.005895396790677603  0.9994399691169176  1.0000
  Se  Se1       1.0  0.0033434861649579936  0.009104603630485576  0.0  1.0000
  Se  Se2       1.0  0.0011518381123438884  0.0023538606144029553  0.9999876015790293  1.0000
  Se  Se3       1.0  0.009864195774587737  0.008263926387035653  0.9995778277229441  1.0000
  Se  Se4       1.0  0.0051382549607968675  0.0035258744995423216  0.9995778995548846  1.0000
  Se  Se5       1.0  0.00991422930233561  0.0034811676989235825  0.9993029451296285  1.0000
  Se  Se6       1.0  0.005085771118827569  0.008309625882431624  0.9993029451296285  1.0000
  Se  Se7       1.0  0.004914229381303707  0.003309625632365986  0.9990261963310964  1.0000
  Se  Se8       1.0  8.577090474999575e-05  0.008481167619955486  0.9990261963310964  1.0000
