data_image0
_chemical_formula_structural       HCa3Pt15Ca3Pt15
_chemical_formula_sum              "H1 Ca6 Pt30"
_cell_length_a       7.017097002581382
_cell_length_b       9.394739151000977
_cell_length_c       105.08548736572266
_cell_angle_alpha    90.0
_cell_angle_beta     95.95570947446026
_cell_angle_gamma    47.97785446662084

_space_group_name_H-M_alt    "P 1"
_space_group_IT_number       1

loop_
  _space_group_symop_operation_xyz
  'x, y, z'

loop_
  _atom_site_type_symbol
  _atom_site_label
  _atom_site_symmetry_multiplicity
  _atom_site_fract_x
  _atom_site_fract_y
  _atom_site_fract_z
  _atom_site_occupancy
  H   H1        1.0  0.009721722018072082  0.008413356462711777  6.408028422360758e-05  1.0000
  Ca  Ca1       1.0  0.008988960627039359  0.0007389829384954763  9.03058005934686e-06  1.0000
  Ca  Ca2       1.0  0.0019449446798683687  0.00426101708302151  0.9995818251321275  1.0000
  Ca  Ca3       1.0  0.005278277996361972  0.00759434985377237  0.9998044090794191  1.0000
  Pt  Pt1       1.0  0.005278277996361972  0.004261016636754328  0.9998044090794191  1.0000
  Pt  Pt2       1.0  0.008491923228334091  0.007609739331554944  2.2178602489104525e-05  1.0000
  Pt  Pt3       1.0  0.0019449446798683687  0.0009276838660034684  0.9995818251321275  1.0000
  Pt  Pt4       1.0  0.005278277996361972  0.0009276838162656879  0.9998044090794191  1.0000
  Pt  Pt5       1.0  0.00849319775537284  0.004364829354729905  2.2215226004323183e-05  1.0000
  Pt  Pt6       1.0  0.0019449446798683687  0.007594350300039552  0.9995818251321275  1.0000
  Pt  Pt7       1.0  0.0002782780892811993  0.0075943500928139255  0.9998044092246994  1.0000
  Pt  Pt8       1.0  0.0035039064961006343  0.0009072845454804142  2.4338298611320817e-05  1.0000
  Pt  Pt9       1.0  0.006944944744821616  0.004261016765043717  0.9995818249879411  1.0000
  Pt  Pt10      1.0  0.00861161113242989  0.0009276838567407502  0.9996931172433126  1.0000
  Pt  Pt11      1.0  0.002085019242962232  0.004191304162525499  0.999926375112921  1.0000
  Pt  Pt12      1.0  0.005063407965556696  0.007702067198109305  0.00011935183902414246  1.0000
  Pt  Pt13      1.0  0.0002782780892811993  0.0025943502672868624  0.9998044092246994  1.0000
  Pt  Pt14      1.0  0.0035036611171690517  0.006054023608636224  2.427534072698048e-05  1.0000
  Pt  Pt15      1.0  0.006944944744821616  0.009261016987100183  0.9995818249879411  1.0000
  Ca  Ca4       1.0  0.00861161113242989  0.0009276838567407502  0.9993592414611644  1.0000
  Ca  Ca5       1.0  0.0019449446798683687  0.00426101708302151  0.9989140738514319  1.0000
  Ca  Ca6       1.0  0.005278277996361972  0.00759434985377237  0.9991366577987236  1.0000
  Pt  Pt16      1.0  0.005278277996361972  0.004261016636754328  0.9991366577987236  1.0000
  Pt  Pt17      1.0  0.00861161113242989  0.007594350290776834  0.9993592414611644  1.0000
  Pt  Pt18      1.0  0.0019449446798683687  0.0009276838660034684  0.9989140738514319  1.0000
  Pt  Pt19      1.0  0.005278277996361972  0.0009276838162656879  0.9991366577987236  1.0000
  Pt  Pt20      1.0  0.00861161113242989  0.004261017073758792  0.9993592414611644  1.0000
  Pt  Pt21      1.0  0.0019449446798683687  0.007594350300039552  0.9989140738514319  1.0000
  Pt  Pt22      1.0  0.0002782780892811993  0.0075943500928139255  0.999136657660403  1.0000
  Pt  Pt23      1.0  0.0036116116087536974  0.0009276837058153146  0.9993592416091011  1.0000
  Pt  Pt24      1.0  0.006944944744821616  0.004261016765043717  0.9989140739908463  1.0000
  Pt  Pt25      1.0  0.00861161113242989  0.0009276838567407502  0.9990253656790162  1.0000
  Pt  Pt26      1.0  0.0019449446798683687  0.00426101708302151  0.9992479496335801  1.0000
  Pt  Pt27      1.0  0.005278277996361972  0.00759434985377237  0.999470533297271  1.0000
  Pt  Pt28      1.0  0.0002782780892811993  0.0025943502672868624  0.999136657660403  1.0000
  Pt  Pt29      1.0  0.0036116116087536974  0.005927683333077676  0.9993592416091011  1.0000
  Pt  Pt30      1.0  0.006944944744821616  0.009261016987100183  0.9989140739908463  1.0000
