data_image0
_chemical_formula_structural       HCo6Fe3Si3Co6Fe3Si3Co6Fe3Si3Co6Fe3Si3
_chemical_formula_sum              "H1 Co24 Fe12 Si12"
_cell_length_a       7.888307571411133
_cell_length_b       7.8883075985430215
_cell_length_c       108.6446533203125
_cell_angle_alpha    90.0
_cell_angle_beta     90.0
_cell_angle_gamma    119.99999988622203

_space_group_name_H-M_alt    "P 1"
_space_group_IT_number       1

loop_
  _space_group_symop_operation_xyz
  'x, y, z'

loop_
  _atom_site_type_symbol
  _atom_site_label
  _atom_site_symmetry_multiplicity
  _atom_site_fract_x
  _atom_site_fract_y
  _atom_site_fract_z
  _atom_site_occupancy
  H   H1        1.0  0.0008333365388043953  0.0008333338568335733  0.00011340197715324538  1.0000
  Co  Co1       1.0  0.002500000053038838  0.004166659468538369  0.9991996109475648  1.0000
  Co  Co2       1.0  0.0008333383348614585  0.0008333280628856059  0.999788634216397  1.0000
  Co  Co3       1.0  0.004166666694292545  0.002499992845496722  0.999496025470932  1.0000
  Co  Co4       1.0  0.004166647003088746  0.0024999879376819733  0.9999223395276439  1.0000
  Co  Co5       1.0  0.002500000053038838  0.004166659468538369  0.9996442330069257  1.0000
  Co  Co6       1.0  0.000833333336883307  0.0008333261542909815  0.9993478184835585  1.0000
  Fe  Fe1       1.0  0.0025000216344205867  0.004166673646669865  0.9999297063988666  1.0000
  Fe  Fe2       1.0  0.000833333336883307  0.0008333261542909815  0.9995701292389289  1.0000
  Fe  Fe3       1.0  0.004166666694292545  0.002499992845496722  0.9992737147155616  1.0000
  Si  Si1       1.0  0.004166666694292545  0.002499992845496722  0.9997183367749226  1.0000
  Si  Si2       1.0  0.002500000053038838  0.004166659468538369  0.9994219222515554  1.0000
  Si  Si3       1.0  0.0008333365388043953  0.0008333338568335733  0.0  1.0000
  Co  Co7       1.0  0.0025000000348267774  0.00916665933766331  0.9991996109475648  1.0000
  Co  Co8       1.0  0.0008333382439191762  0.005833327727518265  0.999788634216397  1.0000
  Co  Co9       1.0  0.00416666655801681  0.007499992714621663  0.999496025470932  1.0000
  Co  Co10      1.0  0.004166647014392605  0.0074999878068069134  0.9999223395276439  1.0000
  Co  Co11      1.0  0.0025000000348267774  0.00916665933766331  0.9996442330069257  1.0000
  Co  Co12      1.0  0.0008333334117851311  0.005833326091580016  0.9993478184835585  1.0000
  Fe  Fe4       1.0  0.002500021527660771  0.009166673515794806  0.9999297063988666  1.0000
  Fe  Fe5       1.0  0.0008333334117851311  0.005833326091580016  0.9995701292389289  1.0000
  Fe  Fe6       1.0  0.00416666655801681  0.007499992714621663  0.9992737147155616  1.0000
  Si  Si4       1.0  0.00416666655801681  0.007499992714621663  0.9997183367749226  1.0000
  Si  Si5       1.0  0.0025000000348267774  0.00916665933766331  0.9994219222515554  1.0000
  Si  Si6       1.0  0.0008333365205923349  0.005833333725958513  0.0  1.0000
  Co  Co13      1.0  0.0074999999585878985  0.004166659468538369  0.9991996109475648  1.0000
  Co  Co14      1.0  0.005833338506053786  0.0008333280628856059  0.999788634216397  1.0000
  Co  Co15      1.0  0.009166666363714257  0.002499992845496722  0.999496025470932  1.0000
  Co  Co16      1.0  0.009166646908637808  0.0024999879376819733  0.9999223395276439  1.0000
  Co  Co17      1.0  0.0074999999585878985  0.004166659468538369  0.9996442330069257  1.0000
  Co  Co18      1.0  0.005833333301464206  0.0008333261542909815  0.9993478184835585  1.0000
  Fe  Fe7       1.0  0.00750002168754924  0.004166673646669865  0.9999297063988666  1.0000
  Fe  Fe8       1.0  0.005833333301464206  0.0008333261542909815  0.9995701292389289  1.0000
  Fe  Fe9       1.0  0.009166666363714257  0.002499992845496722  0.9992737147155616  1.0000
  Si  Si7       1.0  0.009166666363714257  0.002499992845496722  0.9997183367749226  1.0000
  Si  Si8       1.0  0.0074999999585878985  0.004166659468538369  0.9994219222515554  1.0000
  Si  Si9       1.0  0.005833336680480804  0.0008333338568335733  0.0  1.0000
  Co  Co19      1.0  0.007499999940375838  0.00916665933766331  0.9991996109475648  1.0000
  Co  Co20      1.0  0.005833338149468237  0.005833327727518265  0.999788634216397  1.0000
  Co  Co21      1.0  0.009166666581629545  0.007499992714621663  0.999496025470932  1.0000
  Co  Co22      1.0  0.009166647126553096  0.0074999878068069134  0.9999223395276439  1.0000
  Co  Co23      1.0  0.007499999940375838  0.00916665933766331  0.9996442330069257  1.0000
  Co  Co24      1.0  0.0058333333173341915  0.005833326091580016  0.9993478184835585  1.0000
  Fe  Fe10      1.0  0.007500021433209832  0.009166673515794806  0.9999297063988666  1.0000
  Fe  Fe11      1.0  0.0058333333173341915  0.005833326091580016  0.9995701292389289  1.0000
  Fe  Fe12      1.0  0.009166666581629545  0.007499992714621663  0.9992737147155616  1.0000
  Si  Si10      1.0  0.009166666581629545  0.007499992714621663  0.9997183367749226  1.0000
  Si  Si11      1.0  0.007499999940375838  0.00916665933766331  0.9994219222515554  1.0000
  Si  Si12      1.0  0.005833336426141395  0.005833333725958513  0.0  1.0000
