data_image0
_chemical_formula_structural       COZn12Ni4Zn12Ni4
_chemical_formula_sum              "C1 O1 Zn24 Ni8"
_cell_length_a       8.808921965341765
_cell_length_b       5.23634147644043
_cell_length_c       106.65438842773438
_cell_angle_alpha    90.0
_cell_angle_beta     72.70940998883763
_cell_angle_gamma    72.70940998883763

_space_group_name_H-M_alt    "P 1"
_space_group_IT_number       1

loop_
  _space_group_symop_operation_xyz
  'x, y, z'

loop_
  _atom_site_type_symbol
  _atom_site_label
  _atom_site_symmetry_multiplicity
  _atom_site_fract_x
  _atom_site_fract_y
  _atom_site_fract_z
  _atom_site_occupancy
  C   C1        1.0  0.00436292101890176  0.0060158519653474235  0.9998698056791069  1.0000
  O   O1        1.0  0.00436292101890176  0.0060158519653474235  0.9999823188583168  1.0000
  Zn  Zn1       1.0  0.0037008801493784325  0.009970321158346195  0.9996835593364801  1.0000
  Zn  Zn2       1.0  0.003722531487398031  0.0050296784550118235  0.9994238932634265  1.0000
  Zn  Zn3       1.0  0.0036986066540203523  0.0051452129821065815  0.9996836609729909  1.0000
  Zn  Zn4       1.0  0.003722531487398031  2.9678675555116038e-05  0.9994238932634265  1.0000
  Zn  Zn5       1.0  0.0012938345331994826  0.0037497840226889505  0.9996194275795882  1.0000
  Zn  Zn6       1.0  0.0012225314640944705  0.008779678978893188  0.9993625228677714  1.0000
  Zn  Zn7       1.0  0.008776682017436581  0.0024984605332339037  0.9995410088186408  1.0000
  Zn  Zn8       1.0  0.008648669966997685  0.007587046777203159  0.9997876909242468  1.0000
  Zn  Zn9       1.0  0.008777468745637573  0.007517707929549836  0.9995409878293247  1.0000
  Zn  Zn10      1.0  0.008652337015271029  0.002542330075287034  0.9997876081700513  1.0000
  Zn  Zn11      1.0  0.006051354857819199  0.0013754585591434767  0.9997436532960359  1.0000
  Zn  Zn12      1.0  0.0062225316272193935  0.006279678897330726  0.9994852636562214  1.0000
  Ni  Ni1       1.0  0.0012225314640944705  0.003779678665863997  0.9993625228677714  1.0000
  Ni  Ni2       1.0  0.0012482121042347006  0.008773580169289311  0.9996120310918784  1.0000
  Ni  Ni3       1.0  0.0062225316272193935  0.0012796785843015356  0.9994852636562214  1.0000
  Ni  Ni4       1.0  0.0063763262708755155  0.006211944793612116  0.9997141732249093  1.0000
  Zn  Zn13      1.0  0.003722531487398031  2.9678675555116038e-05  0.9991784115891005  1.0000
  Zn  Zn14      1.0  0.003722531487398031  0.0050296784550118235  0.9989329299147744  1.0000
  Zn  Zn15      1.0  0.003722531487398031  0.0050296784550118235  0.9991784115891005  1.0000
  Zn  Zn16      1.0  0.003722531487398031  2.9678675555116038e-05  0.9989329299147744  1.0000
  Zn  Zn17      1.0  0.0012225314640944705  0.003779678665863997  0.9991170411934454  1.0000
  Zn  Zn18      1.0  0.0012225314640944705  0.008779678978893188  0.9988715595191193  1.0000
  Zn  Zn19      1.0  0.008722531067933942  0.002529678664743867  0.9990556707175259  1.0000
  Zn  Zn20      1.0  0.008722531067933942  0.0075296789777730576  0.9993011523918519  1.0000
  Zn  Zn21      1.0  0.008722531067933942  0.0075296789777730576  0.9990556707175259  1.0000
  Zn  Zn22      1.0  0.008722531067933942  0.002529678664743867  0.9993011523918519  1.0000
  Zn  Zn23      1.0  0.0062225316272193935  0.0012796785843015356  0.9992397819818953  1.0000
  Zn  Zn24      1.0  0.0062225316272193935  0.006279678897330726  0.9989943003075693  1.0000
  Ni  Ni5       1.0  0.0012225314640944705  0.003779678665863997  0.9988715595191193  1.0000
  Ni  Ni6       1.0  0.0012225314640944705  0.008779678978893188  0.9991170411934454  1.0000
  Ni  Ni7       1.0  0.0062225316272193935  0.0012796785843015356  0.9989943003075693  1.0000
  Ni  Ni8       1.0  0.0062225316272193935  0.006279678897330726  0.9992397819818953  1.0000
