data_image0
_chemical_formula_structural       HIn6Ni12In6Ni12
_chemical_formula_sum              "H1 In12 Ni24"
_cell_length_a       5.300104141235352
_cell_length_b       11.542976730793926
_cell_length_c       100.53984832763672
_cell_angle_alpha    79.10660461730787
_cell_angle_beta     90.0
_cell_angle_gamma    90.0

_space_group_name_H-M_alt    "P 1"
_space_group_IT_number       1

loop_
  _space_group_symop_operation_xyz
  'x, y, z'

loop_
  _atom_site_type_symbol
  _atom_site_label
  _atom_site_symmetry_multiplicity
  _atom_site_fract_x
  _atom_site_fract_y
  _atom_site_fract_z
  _atom_site_occupancy
  H   H1        1.0  0.007532491596584977  0.006359422323602724  0.9998894076204891  1.0000
  In  In1       1.0  0.00753250003103879  0.006037755127302937  0.9990286752423304  1.0000
  In  In2       1.0  0.00753250003103879  0.0027044213732919857  0.9993179691018941  1.0000
  In  In3       1.0  0.00753250003103879  0.009371088224005111  0.999173322125255  1.0000
  In  In4       1.0  0.002532499756919041  0.008259977410873979  0.9994144006081003  1.0000
  In  In5       1.0  0.002532499756919041  0.004926643656863027  0.9992697534430144  1.0000
  In  In6       1.0  0.002532499756919041  0.0015933102315064652  0.9991251065672205  1.0000
  Ni  Ni1       1.0  3.249974890191705e-05  0.007148865940434069  0.9992215377841347  1.0000
  Ni  Ni2       1.0  3.249974890191705e-05  0.0038155325150775066  0.999076890908341  1.0000
  Ni  Ni3       1.0  3.249974890191705e-05  0.0004821990075573472  0.9993661847625565  1.0000
  Ni  Ni4       1.0  0.005032499806120022  0.007148865940434069  0.9992215377841347  1.0000
  Ni  Ni5       1.0  0.005032499806120022  0.0038155325150775066  0.999076890908341  1.0000
  Ni  Ni6       1.0  0.005032499806120022  0.0004821990075573472  0.9993661847625565  1.0000
  Ni  Ni7       1.0  0.002532499756919041  0.006037755127302937  0.9990286752423304  1.0000
  Ni  Ni8       1.0  0.002532499756919041  0.0027044213732919857  0.9993179691018941  1.0000
  Ni  Ni9       1.0  0.002532499756919041  0.009371088224005111  0.999173322125255  1.0000
  Ni  Ni10      1.0  0.00753250003103879  0.008259977410873979  0.9994144006081003  1.0000
  Ni  Ni11      1.0  0.00753250003103879  0.004926643656863027  0.9992697534430144  1.0000
  Ni  Ni12      1.0  0.00753250003103879  0.0015933102315064652  0.9991251065672205  1.0000
  In  In7       1.0  0.00753250003103879  0.006037755127302937  0.99946261626698  1.0000
  In  In8       1.0  0.007532510574106055  0.0026959935244778846  0.999790116941345  1.0000
  In  In9       1.0  0.007532505654007998  0.009517801515003131  0.999590725456381  1.0000
  In  In10      1.0  0.0025324844694715057  0.00810738646479021  0.9998557658673334  1.0000
  In  In11      1.0  0.0025324964182810734  0.005026440876579413  0.9997213895030922  1.0000
  In  In12      1.0  0.0025324906195940775  0.0015727897087909675  0.9995515101554908  1.0000
  Ni  Ni13      1.0  0.009967500137650286  0.007155688148232657  0.9996538546005417  1.0000
  Ni  Ni14      1.0  3.249974890191705e-05  0.0038155325150775066  0.9995108319329905  1.0000
  Ni  Ni15      1.0  4.113035044075981e-05  0.0004949679289450895  0.9997743516194827  1.0000
  Ni  Ni16      1.0  0.005097497112942689  0.007155680260527332  0.9996538571430655  1.0000
  Ni  Ni17      1.0  0.005032499806120022  0.0038155325150775066  0.9995108319329905  1.0000
  Ni  Ni18      1.0  0.00502386819694949  0.0004949701062804139  0.9997743509793949  1.0000
  Ni  Ni19      1.0  0.002532499756919041  0.006037755127302937  0.99946261626698  1.0000
  Ni  Ni20      1.0  0.002532511002857458  0.002698880753281748  0.9997424855213739  1.0000
  Ni  Ni21      1.0  0.0025325078399372784  0.009305181844841305  0.9996144105302563  1.0000
  Ni  Ni22      1.0  0.007532485270744618  0.008279009786517888  0.9998203699446814  1.0000
  Ni  Ni23      1.0  0.007532497922425337  0.00501738710548222  0.9997070363171712  1.0000
  Ni  Ni24      1.0  0.007532491596584977  0.0018113195049869648  0.99957607547492  1.0000
