data_image0
_chemical_formula_structural       HCo24Sn24
_chemical_formula_sum              "H1 Co24 Sn24"
_cell_length_a       10.048982468083798
_cell_length_b       6.825543062519825
_cell_length_c       108.90680694580078
_cell_angle_alpha    90.29852025620349
_cell_angle_beta     94.5806274046822
_cell_angle_gamma    71.26158196310921

_space_group_name_H-M_alt    "P 1"
_space_group_IT_number       1

loop_
  _space_group_symop_operation_xyz
  'x, y, z'

loop_
  _atom_site_type_symbol
  _atom_site_label
  _atom_site_symmetry_multiplicity
  _atom_site_fract_x
  _atom_site_fract_y
  _atom_site_fract_z
  _atom_site_occupancy
  H   H1        1.0  0.005081346541119281  0.0009836151934388862  8.808801593551674e-05  1.0000
  Co  Co1       1.0  0.005347222473616657  0.008541666724997524  0.9989324372390238  1.0000
  Co  Co2       1.0  0.0024305556341163164  0.006041666646537866  0.9990812908041977  1.0000
  Co  Co3       1.0  0.009513889611647888  0.0035416664004616024  0.9992301445504734  1.0000
  Co  Co4       1.0  0.006597222379343744  0.0010416665075472472  0.9993789978391636  1.0000
  Co  Co5       1.0  0.007430555649828469  0.006041667294068927  0.9990812908920929  1.0000
  Co  Co6       1.0  0.004513889203131932  0.003541666484269905  0.9992301444599225  1.0000
  Co  Co7       1.0  0.0015972222654306407  0.001041666588645088  0.9993789977507828  1.0000
  Co  Co8       1.0  0.0003472221633016516  0.0085416667624195  0.9989324371491815  1.0000
  Co  Co9       1.0  0.00888888926598054  0.002291666410919132  0.9990068638871143  1.0000
  Co  Co10      1.0  0.0059722224264802  0.009791666900085297  0.9991557173522494  1.0000
  Co  Co11      1.0  0.00305555558697986  0.0072916668216256395  0.9993045711910731  1.0000
  Co  Co12      1.0  0.00013888885795558932  0.004791666690981365  0.9994534250306938  1.0000
  Co  Co13      1.0  0.0036805555398434033  0.008541666996713413  0.9995278513042987  1.0000
  Co  Co14      1.0  0.000763888896744965  0.006041666825481104  0.9996767051445393  1.0000
  Co  Co15      1.0  0.00784722228507083  0.003541666857722794  0.9998255586129143  1.0000
  Co  Co16      1.0  0.004930555838374295  0.0010416665937178328  0.999974412454572  1.0000
  Co  Co17      1.0  0.005763889108859019  0.006041666834445452  0.9996767052336732  1.0000
  Co  Co18      1.0  0.002847222269358679  0.003541666755985794  0.9998255585251974  1.0000
  Co  Co19      1.0  0.009930556246890251  0.0010416665099095299  0.9999744125451229  1.0000
  Co  Co20      1.0  0.008680555555555556  0.008541666552656353  0.9995278513918374  1.0000
  Co  Co21      1.0  0.0072222227250110915  0.002291666497089718  0.9996022785025227  1.0000
  Co  Co22      1.0  0.0043055558855107515  0.009791666986255882  0.9997511319676577  1.0000
  Co  Co23      1.0  0.0013888889478094596  0.007291666954182551  0.999899985805773  1.0000
  Co  Co24      1.0  0.008472222630738178  0.004791666301471203  4.883927609518753e-05  1.0000
  Sn  Sn1       1.0  0.00715277815486943  0.0027083334802605274  0.9991805265140706  1.0000
  Sn  Sn2       1.0  0.004236111315369089  0.00020833326535235448  0.9993293803528498  1.0000
  Sn  Sn3       1.0  0.0013194444758687488  0.007708333345172975  0.9994782338178512  1.0000
  Sn  Sn4       1.0  6.944445352803241e-05  0.00520833359587525  0.9990316730434373  1.0000
  Sn  Sn5       1.0  0.004791666698090971  0.006875000298078304  0.999130908564295  1.0000
  Sn  Sn6       1.0  0.0018750000549925326  0.004375000126845995  0.9992797624045358  1.0000
  Sn  Sn7       1.0  0.008958333836122203  0.0018749999735423821  0.9994286158757447  1.0000
  Sn  Sn8       1.0  0.0077083339303951155  0.009375000190992659  0.9989820550019551  1.0000
  Sn  Sn9       1.0  0.005138889155995476  0.004791666659357678  0.9994534245731481  1.0000
  Sn  Sn10      1.0  0.0038888888574645846  0.0022916667676244652  0.9990068640703024  1.0000
  Sn  Sn11      1.0  0.0009722222143661462  0.00979166634532689  0.9991557178102368  1.0000
  Sn  Sn12      1.0  0.008055555995495817  0.007291666192023276  0.9993045712814458  1.0000
  Sn  Sn13      1.0  0.005486111221096176  0.0027083332061823557  0.9997759405791673  1.0000
  Sn  Sn14      1.0  0.002569444577997738  0.0002083333078470767  0.999924794419497  1.0000
  Sn  Sn15      1.0  0.009652777966323604  0.00770833363481756  7.364806139380222e-05  1.0000
  Sn  Sn16      1.0  0.008402778060596517  0.005208333284642014  0.9996270872876432  1.0000
  Sn  Sn17      1.0  0.0031250001571215217  0.0068749998384548296  0.9997263231795251  1.0000
  Sn  Sn18      1.0  0.00020833326852070564  0.004375000056085365  0.9998751764707842  1.0000
  Sn  Sn19      1.0  0.007291667295152754  0.0018749995139189077  2.4029943675259605e-05  1.0000
  Sn  Sn20      1.0  0.0060416669966218625  0.009375000462708548  0.9995774693408797  1.0000
  Sn  Sn21      1.0  0.0034722222222222225  0.004791666931073568  4.8839185722508984e-05  1.0000
  Sn  Sn22      1.0  0.002222222316495135  0.0022916665808980206  0.9996022784119718  1.0000
  Sn  Sn23      1.0  0.009305555901222904  0.009791666542198823  0.9997511320551965  1.0000
  Sn  Sn24      1.0  0.006388889061722563  0.007291666463739165  0.9998999853467206  1.0000
