data_image0
_chemical_formula_structural       COIn2Ni4In2Ni4In2Ni4In2Ni4
_chemical_formula_sum              "C1 O1 In8 Ni16"
_cell_length_a       8.72567077597537
_cell_length_b       5.300104141235352
_cell_length_c       104.90267944335938
_cell_angle_alpha    90.0
_cell_angle_beta     120.0000001461037
_cell_angle_gamma    90.0

_space_group_name_H-M_alt    "P 1"
_space_group_IT_number       1

loop_
  _space_group_symop_operation_xyz
  'x, y, z'

loop_
  _atom_site_type_symbol
  _atom_site_label
  _atom_site_symmetry_multiplicity
  _atom_site_fract_x
  _atom_site_fract_y
  _atom_site_fract_z
  _atom_site_occupancy
  C   C1        1.0  0.005278030079162899  0.006250051169019797  0.0003520134917567426  1.0000
  O   O1        1.0  0.005278030079162899  0.006250051169019797  0.0004664054632713911  1.0000
  In  In1       1.0  0.004117811307517065  0.0037499578136735135  0.9997431300155927  1.0000
  In  In2       1.0  0.0024511447000081844  0.008749957912075475  0.9994658674180734  1.0000
  Ni  Ni1       1.0  0.0007844780924993038  0.0012499577644725331  0.9996044988171158  1.0000
  Ni  Ni2       1.0  0.0007844780924993038  0.006249957687156706  0.9996044988171158  1.0000
  Ni  Ni3       1.0  0.004117811307517065  0.008749957912075475  0.9997431300155927  1.0000
  Ni  Ni4       1.0  0.0024511447000081844  0.0037499578136735135  0.9994658674180734  1.0000
  In  In3       1.0  0.004215521730027338  0.003750059378554841  0.00017532085511462244  1.0000
  In  In4       1.0  0.0024264564303851047  0.008749783600030012  0.9998776638628678  1.0000
  Ni  Ni5       1.0  0.0007926728632120855  0.0012568246399005535  2.177114374444905e-05  1.0000
  Ni  Ni6       1.0  0.0007926663928292182  0.006243030189091907  2.1768601885690172e-05  1.0000
  Ni  Ni7       1.0  0.004048451021596599  0.008750042256613601  0.00014740003306218814  1.0000
  Ni  Ni8       1.0  0.002515248570132644  0.0037497606583156424  0.9998924608067806  1.0000
  In  In5       1.0  0.009117811130043707  0.0037499578136735135  0.9997431298150271  1.0000
  In  In6       1.0  0.007451144522534826  0.008749957912075475  0.9994658675016027  1.0000
  Ni  Ni9       1.0  0.005784477915025945  0.0012499577644725331  0.9996044986165502  1.0000
  Ni  Ni10      1.0  0.005784477915025945  0.006249957687156706  0.9996044986165502  1.0000
  Ni  Ni11      1.0  0.009117811130043707  0.008749957912075475  0.9997431298150271  1.0000
  Ni  Ni12      1.0  0.007451144522534826  0.0037499578136735135  0.9994658675016027  1.0000
  In  In7       1.0  0.00921552204553553  0.003750059378554841  0.00017532095914679342  1.0000
  In  In8       1.0  0.0074264564994025225  0.008749783600030012  0.9998776639566486  1.0000
  Ni  Ni13      1.0  0.005792672747361421  0.0012568246399005535  2.177122983668076e-05  1.0000
  Ni  Ni14      1.0  0.005792666338601248  0.006243030189091907  2.1768690540770343e-05  1.0000
  Ni  Ni15      1.0  0.009048450597632464  0.008750042256613601  0.0001474001063401775  1.0000
  Ni  Ni16      1.0  0.007515248392659286  0.0037497606583156424  0.9998924608903099  1.0000
