data_image0
_chemical_formula_structural       COTi5Al5Ti5Al5
_chemical_formula_sum              "C1 O1 Ti10 Al10"
_cell_length_a       6.351100045997561
_cell_length_b       4.977869882161555
_cell_length_c       104.3871078491211
_cell_angle_alpha    72.3615185636308
_cell_angle_beta     77.19503236039077
_cell_angle_gamma    75.21613980900253

_space_group_name_H-M_alt    "P 1"
_space_group_IT_number       1

loop_
  _space_group_symop_operation_xyz
  'x, y, z'

loop_
  _atom_site_type_symbol
  _atom_site_label
  _atom_site_symmetry_multiplicity
  _atom_site_fract_x
  _atom_site_fract_y
  _atom_site_fract_z
  _atom_site_occupancy
  C   C1        1.0  0.005638703787421433  0.0061361485304049545  0.9999263266491075  1.0000
  O   O1        1.0  0.005638703787421433  0.0061361485304049545  4.128303559346591e-05  1.0000
  Ti  Ti1       1.0  0.004025194536592938  0.008000312986897018  0.9991524338572104  1.0000
  Ti  Ti2       1.0  0.008025194248604007  0.0060003133236834925  0.9992622405921849  1.0000
  Ti  Ti3       1.0  2.519459869267923e-05  3.130500141371761e-07  0.9990426278046989  1.0000
  Ti  Ti4       1.0  0.002025194624268611  0.004000313259533687  0.9988230149689273  1.0000
  Ti  Ti5       1.0  0.006025194429483068  0.0020003129949157433  0.998932821425837  1.0000
  Al  Al1       1.0  0.004025194536592938  0.008000312986897018  0.99887791799943  1.0000
  Al  Al2       1.0  0.008025194248604007  0.0060003133236834925  0.9989877244489065  1.0000
  Al  Al3       1.0  2.519459869267923e-05  3.130500141371761e-07  0.9993171433769811  1.0000
  Al  Al4       1.0  0.002025194624268611  0.004000313259533687  0.9990975308267076  1.0000
  Al  Al5       1.0  0.006025194429483068  0.0020003129949157433  0.9992073369981191  1.0000
  Ti  Ti6       1.0  0.004040599268713369  0.008043377552649028  0.9996989968250118  1.0000
  Ti  Ti7       1.0  0.00813133650016494  0.0061780082826378814  0.9998010832484371  1.0000
  Ti  Ti8       1.0  7.379897702667442e-05  0.009999686788578667  0.9995878354528526  1.0000
  Ti  Ti9       1.0  0.002025194624268611  0.004000313259533687  0.999372046969986  1.0000
  Ti  Ti10      1.0  0.006025194429483068  0.0020003129949157433  0.9994818531413976  1.0000
  Al  Al6       1.0  0.004025194536592938  0.008000312986897018  0.9994269500004888  1.0000
  Al  Al7       1.0  0.008025194248604007  0.0060003133236834925  0.9995367561644671  1.0000
  Al  Al8       1.0  0.009974805347680925  0.00025977576167147964  0.9998512022511499  1.0000
  Al  Al9       1.0  0.002049977475948942  0.004037851720549082  0.9996480521518887  1.0000
  Al  Al10      1.0  0.006003020588378946  0.0020929848050923656  0.9997619242315767  1.0000
