data_image0
_chemical_formula_structural       CONa24Al8Se24
_chemical_formula_sum              "C1 O1 Na24 Al8 Se24"
_cell_length_a       31.70279608386607
_cell_length_b       7.6387763023376465
_cell_length_c       99.47102355957031
_cell_angle_alpha    90.0
_cell_angle_beta     76.56153869529346
_cell_angle_gamma    118.65524506066836

_space_group_name_H-M_alt    "P 1"
_space_group_IT_number       1

loop_
  _space_group_symop_operation_xyz
  'x, y, z'

loop_
  _atom_site_type_symbol
  _atom_site_label
  _atom_site_symmetry_multiplicity
  _atom_site_fract_x
  _atom_site_fract_y
  _atom_site_fract_z
  _atom_site_occupancy
  C   C1        1.0  0.008059359379014894  0.0013279087538217453  0.9994030482637596  1.0000
  O   O1        1.0  0.008059359379014894  0.0013279087538217453  0.9995236866556175  1.0000
  Na  Na1       1.0  0.0007843918996635861  0.008809275506614754  0.9991464417266137  1.0000
  Na  Na2       1.0  0.00593677976296025  0.00943000634029027  0.9986872330383089  1.0000
  Na  Na3       1.0  0.0013010234151514552  0.0006564692940345413  0.9986602538813644  1.0000
  Na  Na4       1.0  0.006301023715102098  0.0006564699592720799  0.9990306010607137  1.0000
  Na  Na5       1.0  0.0038010234262607387  0.0006564692283615693  0.9988058237872655  1.0000
  Na  Na6       1.0  0.008777670069081612  0.0009165531633073618  0.9991716197736825  1.0000
  Na  Na7       1.0  0.0034656100078003164  0.009502459871255354  0.9991405558830181  1.0000
  Na  Na8       1.0  0.00843678005180161  0.009430007071200779  0.9988328029236385  1.0000
  Na  Na9       1.0  0.0018185532550412684  0.007338133970227211  0.998970225048136  1.0000
  Na  Na10      1.0  0.006025779006924656  0.0031836414903347594  0.9993516617514114  1.0000
  Na  Na11      1.0  0.0004192501438674376  0.0027483420352526337  0.9987035238130446  1.0000
  Na  Na12      1.0  0.005424056354389045  0.002770581297580679  0.99908298832947  1.0000
  Na  Na13      1.0  0.0029192501896932303  0.002748342282513277  0.9988931789480948  1.0000
  Na  Na14      1.0  0.007683033526074358  0.002419883944206638  0.9992733298339447  1.0000
  Na  Na15      1.0  0.004475573261669156  0.00750624911322061  0.9991515191357262  1.0000
  Na  Na16      1.0  0.009318553288369117  0.007338134260889848  0.9987895332941378  1.0000
  Na  Na17      1.0  0.0003416195500123571  0.0034165776306288843  0.9990954456081864  1.0000
  Na  Na18      1.0  0.0053791248590276414  0.0031277554043054093  0.9987062913914121  1.0000
  Na  Na19      1.0  0.0017682788888551957  0.006594724216149425  0.9992897318606193  1.0000
  Na  Na20      1.0  0.006858678619034706  0.006958720895256942  0.9989670488104688  1.0000
  Na  Na21      1.0  0.004358678330193346  0.006958720286266819  0.9987867657337702  1.0000
  Na  Na22      1.0  0.00937883892385637  0.007656846987459117  0.9991817394851216  1.0000
  Na  Na23      1.0  0.002821041350066912  0.003370397521134536  0.9992093078003594  1.0000
  Na  Na24      1.0  0.007879125147869002  0.003127756135215919  0.9988963551738834  1.0000
  Al  Al1       1.0  0.00026940705765821007  0.006660494804626981  0.9988206482042075  1.0000
  Al  Al2       1.0  0.005309940132340179  0.006579112629813608  0.9992090729714391  1.0000
  Al  Al3       1.0  0.001865356664599333  0.0031163102837908265  0.999065160128468  1.0000
  Al  Al4       1.0  0.006968396675917648  0.0034259821790240176  0.9986948049561515  1.0000
  Al  Al5       1.0  0.004486804469117046  0.0035128703803522887  0.9990478563611632  1.0000
  Al  Al6       1.0  0.009468396409294855  0.003425981804449118  0.9986724086007954  1.0000
  Al  Al7       1.0  0.002769407068767493  0.006660494860874397  0.99879825182828  1.0000
  Al  Al8       1.0  0.007701347179209054  0.006498882208851453  0.9991449802738127  1.0000
  Se  Se1       1.0  0.0020030292881939287  0.00350171436494646  0.9988132770541261  1.0000
  Se  Se2       1.0  0.0069840057740898675  0.003508012097667661  0.9992369503024823  1.0000
  Se  Se3       1.0  0.00976830928052088  0.005184106808712171  0.9992722956646243  1.0000
  Se  Se4       1.0  0.005234774167649853  0.00658476188308125  0.9989442507668372  1.0000
  Se  Se5       1.0  0.0026371829930527343  0.0062821436764283695  0.9990823337845144  1.0000
  Se  Se6       1.0  0.007734774456491213  0.006584762370150985  0.9986797800299133  1.0000
  Se  Se7       1.0  0.0044962870754103115  0.0035174657970384474  0.9992889592827825  1.0000
  Se  Se8       1.0  0.009503029599253855  0.0035017149035508318  0.998919153217515  1.0000
  Se  Se9       1.0  0.0011397594652024904  0.003162467816358304  0.9991915368508962  1.0000
  Se  Se10      1.0  0.006238861721704959  0.003504283652658673  0.998823481318982  1.0000
  Se  Se11      1.0  0.0009989418730048617  0.006582193542302528  0.9988412521767557  1.0000
  Se  Se12      1.0  0.00602523631844687  0.006405740018513412  0.9992048166899081  1.0000
  Se  Se13      1.0  0.003498942022980183  0.006582193692040714  0.9986695757650575  1.0000
  Se  Se14      1.0  0.008448659208184339  0.0063668417630941545  0.999075486434497  1.0000
  Se  Se15      1.0  0.0037388614328635987  0.0035042826779073852  0.999022152129369  1.0000
  Se  Se16      1.0  0.008738861455082165  0.003504282302720665  0.998651805237749  1.0000
  Se  Se17      1.0  0.000231690954857055  0.009514196918074282  0.9989088136368476  1.0000
  Se  Se18      1.0  0.005298603108971082  0.009532632574356846  0.999274015044864  1.0000
  Se  Se19      1.0  0.001925485659195351  0.0003478868536080808  0.9991633569331877  1.0000
  Se  Se20      1.0  0.007006112691927529  0.000572279892844621  0.9987773834782785  1.0000
  Se  Se21      1.0  0.00450611240308617  0.0005722791619341094  0.9989545903658118  1.0000
  Se  Se22      1.0  0.009443357196191859  0.0016051770607889747  0.9993353754330575  1.0000
  Se  Se23      1.0  0.002731691052757612  0.00951419678129263  0.998715673605761  1.0000
  Se  Se24      1.0  0.007790505285921307  0.009652114216938271  0.999101778662113  1.0000
