data_image0
_chemical_formula_structural       Ga10Rh6Ga10Rh6H
_chemical_formula_sum              "Ga20 Rh12 H1"
_cell_length_a       6.758127895627454
_cell_length_b       8.02086185871463
_cell_length_c       34.66259765625
_cell_angle_alpha    75.26593895247629
_cell_angle_beta     78.59886873971243
_cell_angle_gamma    100.93681060051426

_space_group_name_H-M_alt    "P 1"
_space_group_IT_number       1

loop_
  _space_group_symop_operation_xyz
  'x, y, z'

loop_
  _atom_site_type_symbol
  _atom_site_label
  _atom_site_symmetry_multiplicity
  _atom_site_fract_x
  _atom_site_fract_y
  _atom_site_fract_z
  _atom_site_occupancy
  Ga  Ga1       1.0  0.005513396337692543  0.0053585994454919145  0.9987555512135258  1.0000
  Ga  Ga2       1.0  0.004534080710141822  0.004545562303114778  0.9995577366628177  1.0000
  Ga  Ga3       1.0  0.0017579661674005348  0.00043028361595856134  0.9985746961087003  1.0000
  Ga  Ga4       1.0  0.008197851537893167  0.009518900314164908  0.998322947801055  1.0000
  Ga  Ga5       1.0  0.0010206904309396382  0.002539730559811202  0.9992231585094338  1.0000
  Ga  Ga6       1.0  0.008858691885130828  0.007217751906653696  0.9992616026068661  1.0000
  Ga  Ga7       1.0  0.004816844215061891  0.008504116579815887  0.9990320567475571  1.0000
  Ga  Ga8       1.0  0.005096378056632776  0.0012145702407460252  0.9994322369232362  1.0000
  Ga  Ga9       1.0  0.009040251344347895  0.003439054655388551  0.9983888965459684  1.0000
  Ga  Ga10      1.0  0.0009155667767789833  0.006510129491915478  0.9985087473349789  1.0000
  Rh  Rh1       1.0  0.005115663452298165  0.0022184274349940805  0.9986703885147585  1.0000
  Rh  Rh2       1.0  0.0048401544579559546  0.007730756712309948  0.9982272553743159  1.0000
  Rh  Rh3       1.0  0.008235822446426093  0.00044948861359905216  0.9989797097887027  1.0000
  Rh  Rh4       1.0  0.0017639798441294765  0.0095697160973631  0.9993152667547076  1.0000
  Rh  Rh5       1.0  0.007996787275222789  0.004165056502409182  0.9991148934152803  1.0000
  Rh  Rh6       1.0  0.002094102677617676  0.005795201867776241  0.999174310771099  1.0000
  Ga  Ga11      1.0  0.00544786320564261  0.005370588308786559  0.9973172661371865  1.0000
  Ga  Ga12      1.0  0.004507955059350704  0.004578596086723824  0.998123994671112  1.0000
  Ga  Ga13      1.0  0.0017579661674005348  0.00043028361595856134  0.9971183134860955  1.0000
  Ga  Ga14      1.0  0.008197851537893167  0.009518900314164908  0.9968665651784502  1.0000
  Ga  Ga15      1.0  0.001406472509474759  0.002715955085261305  0.9976458501964226  1.0000
  Ga  Ga16      1.0  0.008549345330488442  0.007233229062042724  0.997795411072756  1.0000
  Ga  Ga17      1.0  0.004713895353281924  0.008695808332400872  0.9974575816021165  1.0000
  Ga  Ga18      1.0  0.005241922483396678  0.001253375566696804  0.9979836796817964  1.0000
  Ga  Ga19      1.0  0.009040251344347895  0.003439054655388551  0.9969325143532551  1.0000
  Ga  Ga20      1.0  0.0009155667767789833  0.006510129491915478  0.997052364712374  1.0000
  Rh  Rh7       1.0  0.005115663452298165  0.0022184274349940805  0.9972140058921538  1.0000
  Rh  Rh8       1.0  0.0048401544579559546  0.007730756712309948  0.9967708727517111  1.0000
  Rh  Rh9       1.0  0.008247748722874171  0.00047242489735416313  0.997523734618889  1.0000
  Rh  Rh10      1.0  0.0017080693489834099  0.00947675884661454  0.9979175266650894  1.0000
  Rh  Rh11      1.0  0.008025973102882021  0.004192479333187316  0.9976560450354134  1.0000
  Rh  Rh12      1.0  0.0019298451445385644  0.005756705062323066  0.9977852162034541  1.0000
  H   H1        1.0  0.009084433172657742  0.0023847584551871647  0.9995386637494728  1.0000
