data_image0
_chemical_formula_structural       COMn12As4Mn12As4Mn12As4Mn12As4
_chemical_formula_sum              "C1 O1 Mn48 As16"
_cell_length_a       7.247287750244141
_cell_length_b       7.189556121826172
_cell_length_c       115.6163330078125
_cell_angle_alpha    90.0
_cell_angle_beta     90.0
_cell_angle_gamma    90.0

_space_group_name_H-M_alt    "P 1"
_space_group_IT_number       1

loop_
  _space_group_symop_operation_xyz
  'x, y, z'

loop_
  _atom_site_type_symbol
  _atom_site_label
  _atom_site_symmetry_multiplicity
  _atom_site_fract_x
  _atom_site_fract_y
  _atom_site_fract_z
  _atom_site_occupancy
  C   C1        1.0  0.0037500027140543405  0.0037500986252479835  0.0001498102670676328  1.0000
  O   O1        1.0  0.0037500027140543405  0.0037500986252479835  0.0002536020411752253  1.0000
  Mn  Mn1       1.0  0.003749997316787186  0.003749997326330358  0.9992075166272228  1.0000
  Mn  Mn2       1.0  0.0012501305676028498  0.0012499013073921218  0.9999998582269747  1.0000
  Mn  Mn3       1.0  0.0037500027140543405  0.0037500986252479835  0.0  1.0000
  Mn  Mn4       1.0  0.0012499973065066771  0.0012499974247794342  0.9992108088546412  1.0000
  Mn  Mn5       1.0  0.0012499973065066771  0.003749997326330358  0.9990390098491071  1.0000
  Mn  Mn6       1.0  0.003749997316787186  0.0012499974247794342  0.9988556429380099  1.0000
  Mn  Mn7       1.0  0.0012501142472950253  0.003750013648150845  0.9998746741921837  1.0000
  Mn  Mn8       1.0  0.003749997316787186  0.0012499974247794342  0.9993447183747212  1.0000
  Mn  Mn9       1.0  0.0012499973065066771  0.003749997326330358  0.9993414261473028  1.0000
  Mn  Mn10      1.0  0.0037498770348334564  0.0012500388770219407  0.9998738539707896  1.0000
  Mn  Mn11      1.0  0.003749997316787186  0.003749997326330358  0.999696591806165  1.0000
  Mn  Mn12      1.0  0.0012499973065066771  0.0012499974247794342  0.9995132251528369  1.0000
  As  As1       1.0  0.0012499973065066771  0.003749997326330358  0.9988265516287413  1.0000
  As  As2       1.0  0.003749997316787186  0.0012499974247794342  0.9990681011583757  1.0000
  As  As3       1.0  0.003749997316787186  0.003749997326330358  0.9994841338435683  1.0000
  As  As4       1.0  0.0012499973065066771  0.0012499974247794342  0.9997256831154336  1.0000
  Mn  Mn13      1.0  0.003749997316787186  0.00874999738850872  0.9992075166272228  1.0000
  Mn  Mn14      1.0  0.0012501305676028498  0.006249901240032227  0.9999998582269747  1.0000
  Mn  Mn15      1.0  0.0037500027140543405  0.008750098946502862  0.0  1.0000
  Mn  Mn16      1.0  0.0012499973065066771  0.006249997098343024  0.9992108088546412  1.0000
  Mn  Mn17      1.0  0.0012499973065066771  0.00874999738850872  0.9990390098491071  1.0000
  Mn  Mn18      1.0  0.003749997316787186  0.006249997098343024  0.9988556429380099  1.0000
  Mn  Mn19      1.0  0.0012501142472950253  0.008750013969405723  0.9998746741921837  1.0000
  Mn  Mn20      1.0  0.003749997316787186  0.006249997098343024  0.9993447183747212  1.0000
  Mn  Mn21      1.0  0.0012499973065066771  0.00874999738850872  0.9993414261473028  1.0000
  Mn  Mn22      1.0  0.0037498770348334564  0.006250038550585531  0.9998738539707896  1.0000
  Mn  Mn23      1.0  0.003749997316787186  0.00874999738850872  0.999696591806165  1.0000
  Mn  Mn24      1.0  0.0012499973065066771  0.006249997098343024  0.9995132251528369  1.0000
  As  As5       1.0  0.0012499973065066771  0.00874999738850872  0.9988265516287413  1.0000
  As  As6       1.0  0.003749997316787186  0.006249997098343024  0.9990681011583757  1.0000
  As  As7       1.0  0.003749997316787186  0.00874999738850872  0.9994841338435683  1.0000
  As  As8       1.0  0.0012499973065066771  0.006249997098343024  0.9997256831154336  1.0000
  Mn  Mn25      1.0  0.008749997080335482  0.003749997326330358  0.9992075166272228  1.0000
  Mn  Mn26      1.0  0.006250130459657506  0.0012499013073921218  0.9999998582269747  1.0000
  Mn  Mn27      1.0  0.008750003248640802  0.0037500986252479835  0.0  1.0000
  Mn  Mn28      1.0  0.006249997327067694  0.0012499974247794342  0.9992108088546412  1.0000
  Mn  Mn29      1.0  0.006249997327067694  0.003749997326330358  0.9990390098491071  1.0000
  Mn  Mn30      1.0  0.008749997080335482  0.0012499974247794342  0.9988556429380099  1.0000
  Mn  Mn31      1.0  0.006250114524868764  0.003750013648150845  0.9998746741921837  1.0000
  Mn  Mn32      1.0  0.008749997080335482  0.0012499974247794342  0.9993447183747212  1.0000
  Mn  Mn33      1.0  0.006249997327067694  0.003749997326330358  0.9993414261473028  1.0000
  Mn  Mn34      1.0  0.008749876798381752  0.0012500388770219407  0.9998738539707896  1.0000
  Mn  Mn35      1.0  0.008749997080335482  0.003749997326330358  0.999696591806165  1.0000
  Mn  Mn36      1.0  0.006249997327067694  0.0012499974247794342  0.9995132251528369  1.0000
  As  As9       1.0  0.006249997327067694  0.003749997326330358  0.9988265516287413  1.0000
  As  As10      1.0  0.008749997080335482  0.0012499974247794342  0.9990681011583757  1.0000
  As  As11      1.0  0.008749997080335482  0.003749997326330358  0.9994841338435683  1.0000
  As  As12      1.0  0.006249997327067694  0.0012499974247794342  0.9997256831154336  1.0000
  Mn  Mn37      1.0  0.008749997080335482  0.00874999738850872  0.9992075166272228  1.0000
  Mn  Mn38      1.0  0.006250130459657506  0.006249901240032227  0.9999998582269747  1.0000
  Mn  Mn39      1.0  0.008750003248640802  0.008750098946502862  0.0  1.0000
  Mn  Mn40      1.0  0.006249997327067694  0.006249997098343024  0.9992108088546412  1.0000
  Mn  Mn41      1.0  0.006249997327067694  0.00874999738850872  0.9990390098491071  1.0000
  Mn  Mn42      1.0  0.008749997080335482  0.006249997098343024  0.9988556429380099  1.0000
  Mn  Mn43      1.0  0.006250114524868764  0.008750013969405723  0.9998746741921837  1.0000
  Mn  Mn44      1.0  0.008749997080335482  0.006249997098343024  0.9993447183747212  1.0000
  Mn  Mn45      1.0  0.006249997327067694  0.00874999738850872  0.9993414261473028  1.0000
  Mn  Mn46      1.0  0.008749876798381752  0.006250038550585531  0.9998738539707896  1.0000
  Mn  Mn47      1.0  0.008749997080335482  0.00874999738850872  0.999696591806165  1.0000
  Mn  Mn48      1.0  0.006249997327067694  0.006249997098343024  0.9995132251528369  1.0000
  As  As13      1.0  0.006249997327067694  0.00874999738850872  0.9988265516287413  1.0000
  As  As14      1.0  0.008749997080335482  0.006249997098343024  0.9990681011583757  1.0000
  As  As15      1.0  0.008749997080335482  0.00874999738850872  0.9994841338435683  1.0000
  As  As16      1.0  0.006249997327067694  0.006249997098343024  0.9997256831154336  1.0000
