data_image0
_chemical_formula_structural       Sb24Rh12CO
_chemical_formula_sum              "Sb24 Rh12 C1 O1"
_cell_length_a       9.494629696790202
_cell_length_b       7.150531993939429
_cell_length_c       109.97111511230469
_cell_angle_alpha    90.6475471250524
_cell_angle_beta     80.36405316511767
_cell_angle_gamma    68.36903642008163

_space_group_name_H-M_alt    "P 1"
_space_group_IT_number       1

loop_
  _space_group_symop_operation_xyz
  'x, y, z'

loop_
  _atom_site_type_symbol
  _atom_site_label
  _atom_site_symmetry_multiplicity
  _atom_site_fract_x
  _atom_site_fract_y
  _atom_site_fract_z
  _atom_site_occupancy
  Sb  Sb1       1.0  0.0004044521766826869  0.002225998161380798  0.999218208121893  1.0000
  Sb  Sb2       1.0  0.0070711190647936  0.008892664717474413  0.998814353582158  1.0000
  Sb  Sb3       1.0  0.003737785491674722  0.005559331369148123  0.9996220626727468  1.0000
  Sb  Sb4       1.0  0.0065334451224571145  0.0018620562848109454  0.9993549927612508  1.0000
  Sb  Sb5       1.0  0.00320011137834701  0.008528722700345595  0.9989511382522295  1.0000
  Sb  Sb6       1.0  0.009941155343010617  0.005153856427019735  0.9997630800962032  1.0000
  Sb  Sb7       1.0  0.009686188967000346  0.007785684160795785  0.9994668965233736  1.0000
  Sb  Sb8       1.0  0.0063528553938814675  0.004452350812469495  0.9990630414341442  1.0000
  Sb  Sb9       1.0  0.003068875547409341  0.001062852421242181  0.9998712068356966  1.0000
  Sb  Sb10      1.0  0.0035571964783390254  0.0081496261779246  0.9993301118775129  1.0000
  Sb  Sb11      1.0  0.00022386300471327852  0.004816292829598312  0.9989262570578469  1.0000
  Sb  Sb12      1.0  0.006848788349185732  0.0015181888989597575  0.9997376318192193  1.0000
  Sb  Sb13      1.0  0.009874849770839491  0.002471909864470393  0.9994876054470848  1.0000
  Sb  Sb14      1.0  0.006541516343996809  0.009138576561122972  0.9990837509336848  1.0000
  Sb  Sb15      1.0  0.0033379171044311626  0.005840746158228894  0.9998946838225153  1.0000
  Sb  Sb16      1.0  5.8844348915560996e-05  0.00011824604569457682  0.9989041156314387  1.0000
  Sb  Sb17      1.0  0.006750473550325003  0.006761661504831738  0.9997081878306361  1.0000
  Sb  Sb18      1.0  0.0033921776222072602  0.003451579420375672  0.9993079701830178  1.0000
  Sb  Sb19      1.0  0.00021579171167548938  0.007539772317147225  0.9991974991931817  1.0000
  Sb  Sb20      1.0  0.00688245811467826  0.004206438968820936  0.9987936443536186  1.0000
  Sb  Sb21      1.0  0.0035491249395319087  0.0008731056204946467  0.9996013537094574  1.0000
  Sb  Sb22      1.0  6.141941542442387e-05  0.009881753972929485  0.9997809691506562  1.0000
  Sb  Sb23      1.0  0.006698463661321457  0.006560102761241946  0.9993771344601244  1.0000
  Sb  Sb24      1.0  0.0033651304054700014  0.0032267696940335854  0.9989732793665165  1.0000
  Rh  Rh1       1.0  0.006768135716074239  0.0038504424688246062  0.9995506449867427  1.0000
  Rh  Rh2       1.0  0.003434802132867222  0.000517109155638058  0.9991467904396876  1.0000
  Rh  Rh3       1.0  0.00037259598246370466  0.007152929309087156  0.9999353055783419  1.0000
  Rh  Rh4       1.0  0.008329520531754023  0.0011577321819090816  0.9991340345346111  1.0000
  Rh  Rh5       1.0  0.005021924773660789  0.007842151194631553  0.999921412490028  1.0000
  Rh  Rh6       1.0  0.0016628541287512528  0.004491065530235371  0.9995378896451756  1.0000
  Rh  Rh7       1.0  0.00332250556745448  0.006161239712793012  0.9991344596563995  1.0000
  Rh  Rh8       1.0  0.0001591746116186648  0.0026373556367230225  0.999925103655809  1.0000
  Rh  Rh9       1.0  0.006655838581190616  0.009494573623355158  0.9995383142121235  1.0000
  Rh  Rh10      1.0  0.0017611202730970607  0.008853950280826466  0.9995510701156554  1.0000
  Rh  Rh11      1.0  0.008427787273058622  0.005520616932500176  0.9991472149964638  1.0000
  Rh  Rh12      1.0  0.004978081023469741  0.0022931108500527583  0.9999409043234841  1.0000
  C   C1        1.0  0.006799630990107921  0.004139925061336783  0.9999047753177734  1.0000
  O   O1        1.0  0.006799630990107921  0.004139925061336783  1.3895101695245896e-05  1.0000
