data_image0
_chemical_formula_structural       HV12Ir4V12Ir4
_chemical_formula_sum              "H1 V24 Ir8"
_cell_length_a       4.789687156677246
_cell_length_b       6.773640155792236
_cell_length_c       103.86820220947266
_cell_angle_alpha    90.0
_cell_angle_beta     90.0
_cell_angle_gamma    90.0

_space_group_name_H-M_alt    "P 1"
_space_group_IT_number       1

loop_
  _space_group_symop_operation_xyz
  'x, y, z'

loop_
  _atom_site_type_symbol
  _atom_site_label
  _atom_site_symmetry_multiplicity
  _atom_site_fract_x
  _atom_site_fract_y
  _atom_site_fract_z
  _atom_site_occupancy
  H   H1        1.0  0.005000313224822399  0.005473295986555209  0.00011861684549815695  1.0000
  V   V1        1.0  1.2499998879254645e-08  0.006875000197988744  0.9987959550067271  1.0000
  V   V2        1.0  1.2499998879254645e-08  0.001875000016499062  0.9991220242243345  1.0000
  V   V3        1.0  1.2499998879254645e-08  0.004375000175989995  0.9992850584027516  1.0000
  V   V4        1.0  1.2499998879254645e-08  0.009375000219987493  0.9989589894720686  1.0000
  V   V5        1.0  0.005000012226594677  0.006875000197988744  0.9989589894720686  1.0000
  V   V6        1.0  0.005000012226594677  0.001875000016499062  0.9992850584027516  1.0000
  V   V7        1.0  0.005000012226594677  0.009375000219987493  0.9987959550067271  1.0000
  V   V8        1.0  0.005000012226594677  0.004375000175989995  0.9991220242243345  1.0000
  V   V9        1.0  0.007500012506593028  0.00312500016499062  0.9988774722393979  1.0000
  V   V10       1.0  0.007500012506593028  0.008124999934003752  0.9992035414570053  1.0000
  V   V11       1.0  0.0025000123354829242  0.00312500016499062  0.9988774722393979  1.0000
  V   V12       1.0  0.0025000123354829242  0.008124999934003752  0.9992035414570053  1.0000
  Ir  Ir1       1.0  0.005000012226594677  0.005624999912005002  0.9993665759223468  1.0000
  Ir  Ir2       1.0  0.005000012226594677  0.0006250000054996873  0.9990405069916638  1.0000
  Ir  Ir3       1.0  1.2499998879254645e-08  0.005624999912005002  0.9990405069916638  1.0000
  Ir  Ir4       1.0  1.2499998879254645e-08  0.0006250000054996873  0.9993665759223468  1.0000
  V   V13       1.0  1.2499998879254645e-08  0.006875000197988744  0.9994480928680931  1.0000
  V   V14       1.0  0.009999987120075837  0.0019130339292254828  0.9997745089773092  1.0000
  V   V15       1.0  1.9159999354977618e-07  0.004439053659472595  0.9999421124269173  1.0000
  V   V16       1.0  1.2499998879254645e-08  0.009375000219987493  0.9996111273334346  1.0000
  V   V17       1.0  0.005000012226594677  0.006875000197988744  0.9996111273334346  1.0000
  V   V18       1.0  0.0050001106149042554  0.0018117273511260156  0.9999421061145805  1.0000
  V   V19       1.0  0.005000012226594677  0.009375000219987493  0.9994480928680931  1.0000
  V   V20       1.0  0.005000117614863039  0.00433817124475893  0.9997745589021562  1.0000
  V   V21       1.0  0.007500012506593028  0.00312500016499062  0.9995296103876882  1.0000
  V   V22       1.0  0.007499755063664407  0.00812426077602577  0.9998517909187994  1.0000
  V   V23       1.0  0.0025000123354829242  0.00312500016499062  0.9995296103876882  1.0000
  V   V24       1.0  0.0025002783339167253  0.008124267375650572  0.9998517828849159  1.0000
  Ir  Ir5       1.0  0.005000313224822399  0.005473295986555209  0.0  1.0000
  Ir  Ir6       1.0  0.005000012226594677  0.0006250000054996873  0.9996926448530297  1.0000
  Ir  Ir7       1.0  1.2499998879254645e-08  0.005624999912005002  0.9996926448530297  1.0000
  Ir  Ir8       1.0  7.729999380511912e-08  0.0007766689391888044  1.4920069195332848e-08  1.0000
