data_image0
_chemical_formula_structural       CONi18V6Ni18V6
_chemical_formula_sum              "C1 O1 Ni36 V12"
_cell_length_a       8.828814389021366
_cell_length_b       6.691040052795297
_cell_length_c       102.6187973022461
_cell_angle_alpha    90.27550075426309
_cell_angle_beta     90.4175862616404
_cell_angle_gamma    88.9820896983355

_space_group_name_H-M_alt    "P 1"
_space_group_IT_number       1

loop_
  _space_group_symop_operation_xyz
  'x, y, z'

loop_
  _atom_site_type_symbol
  _atom_site_label
  _atom_site_symmetry_multiplicity
  _atom_site_fract_x
  _atom_site_fract_y
  _atom_site_fract_z
  _atom_site_occupancy
  C   C1        1.0  0.003751615531652473  0.002184555895601564  0.00012958627751325234  1.0000
  O   O1        1.0  0.003751615531652473  0.002184555895601564  0.0002465241547264402  1.0000
  Ni  Ni1       1.0  0.0025285409005146443  0.007499999665888797  0.9992321638664735  1.0000
  Ni  Ni2       1.0  0.000861874129360307  0.0017857142658267143  0.9993835277675146  1.0000
  Ni  Ni3       1.0  0.004195207629547517  0.006071428141857025  0.9995348913671903  1.0000
  Ni  Ni4       1.0  0.004195207598154636  0.0046428568962512545  0.9993078458869062  1.0000
  Ni  Ni5       1.0  0.002528540928166155  0.008928571189920569  0.9994592093468426  1.0000
  Ni  Ni6       1.0  0.0008618741530505382  0.00035714284620469276  0.9991564819967926  1.0000
  Ni  Ni7       1.0  2.8540858430958988e-05  0.008214285427904684  0.9993456868271591  1.0000
  Ni  Ni8       1.0  0.00336187417459381  0.002499999888629599  0.9994970502871392  1.0000
  Ni  Ni9       1.0  0.0016952075510504488  0.003928571412661372  0.9991943230769063  1.0000
  Ni  Ni10      1.0  0.002528540751500655  0.00035714284620469276  0.9996862549777793  1.0000
  Ni  Ni11      1.0  0.000882809996762691  0.00467660240624216  0.999839965487354  1.0000
  Ni  Ni12      1.0  0.004186078021909635  0.008969406261226137  0.9999773819883992  1.0000
  Ni  Ni13      1.0  0.004203446023388633  0.0074654224974268985  0.9997593601041838  1.0000
  Ni  Ni14      1.0  0.0025035006832053214  0.001811388762842344  0.9999176789860404  1.0000
  Ni  Ni15      1.0  0.0008618741588825022  0.0032142856506454853  0.9996105732478412  1.0000
  Ni  Ni16      1.0  5.368445159148483e-05  0.001058537797510435  0.9997994533592895  1.0000
  Ni  Ni17      1.0  0.003385505046549946  0.005341057152795202  0.9999502321403007  1.0000
  Ni  Ni18      1.0  0.0016952075083466979  0.00678571390387291  0.9996484143278263  1.0000
  V   V1        1.0  2.8540846523903114e-05  0.009642856951936455  0.9995727323075033  1.0000
  V   V2        1.0  0.0033618741450716144  0.0010714285038108278  0.9992700048068126  1.0000
  V   V3        1.0  0.0016952075787019594  0.005357142936693144  0.9994213685572754  1.0000
  V   V4        1.0  0.009971458908420603  0.0025334909172537523  3.911452516543938e-06  1.0000
  V   V5        1.0  0.0033618742022453203  0.003928571412661372  0.9997240960579261  1.0000
  V   V6        1.0  0.0017107278720231813  0.00819391522467241  0.9998720736877935  1.0000
  Ni  Ni19      1.0  0.007528541170567791  0.007499999665888797  0.9992321640064065  1.0000
  Ni  Ni20      1.0  0.005861874293923944  0.0017857142658267143  0.9993835276169636  1.0000
  Ni  Ni21      1.0  0.009195207899600663  0.006071428141857025  0.9995348912167055  1.0000
  Ni  Ni22      1.0  0.009195207868207784  0.0046428568962512545  0.9993078457364213  1.0000
  Ni  Ni23      1.0  0.007528541198219303  0.008928571189920569  0.9994592094867756  1.0000
  Ni  Ni24      1.0  0.005861874264869419  0.00035714284620469276  0.9991564821366263  1.0000
  Ni  Ni25      1.0  0.005028541049366973  0.008214285427904684  0.9993456866766245  1.0000
  Ni  Ni26      1.0  0.008361874022688915  0.002499999888629599  0.9994970504268075  1.0000
  Ni  Ni27      1.0  0.006695207715614085  0.003928571412661372  0.9991943229263552  1.0000
  Ni  Ni28      1.0  0.007528541021553802  0.00035714284620469276  0.9996862548272945  1.0000
  Ni  Ni29      1.0  0.005882809950347306  0.00467660240624216  0.9998399653366706  1.0000
  Ni  Ni30      1.0  0.009186078291962782  0.008969406261226137  0.9999773818379143  1.0000
  Ni  Ni31      1.0  0.009203445871483737  0.0074654224974268985  0.9997593605342698  1.0000
  Ni  Ni32      1.0  0.007503500531300425  0.001811388762842344  0.999917678835291  1.0000
  Ni  Ni33      1.0  0.005861874323446139  0.0032142856506454853  0.9996105730972902  1.0000
  Ni  Ni34      1.0  0.0050536843326520605  0.001058537797510435  0.9997994532085607  1.0000
  Ni  Ni35      1.0  0.00838550468366603  0.005341057152795202  0.9999502325702544  1.0000
  Ni  Ni36      1.0  0.006695207356441802  0.00678571390387291  0.9996484141770767  1.0000
  V   V7        1.0  0.0050285406550604405  0.009642856951936455  0.999572732156729  1.0000
  V   V8        1.0  0.008361873993166718  0.0010714285038108278  0.9992700049464809  1.0000
  V   V9        1.0  0.0066952073213075525  0.005357142936693144  0.9994213686968776  1.0000
  V   V10       1.0  0.0049714590603255  0.0025334909172537523  3.9116032660131414e-06  1.0000
  V   V11       1.0  0.008361874050340425  0.003928571412661372  0.9997240959071766  1.0000
  V   V12       1.0  0.006710727720118286  0.00819391522467241  0.9998720741178796  1.0000
