data_image0
_chemical_formula_structural       COGa20Pt10Ga20Pt10
_chemical_formula_sum              "C1 O1 Ga40 Pt20"
_cell_length_a       12.816026707407332
_cell_length_b       8.544017791748047
_cell_length_c       100.50824737548828
_cell_angle_alpha    90.0
_cell_angle_beta     81.95053277046667
_cell_angle_gamma    90.0

_space_group_name_H-M_alt    "P 1"
_space_group_IT_number       1

loop_
  _space_group_symop_operation_xyz
  'x, y, z'

loop_
  _atom_site_type_symbol
  _atom_site_label
  _atom_site_symmetry_multiplicity
  _atom_site_fract_x
  _atom_site_fract_y
  _atom_site_fract_z
  _atom_site_occupancy
  C   C1        1.0  0.004929113033986101  1.20000004127474e-09  6.765260320743932e-05  1.0000
  O   O1        1.0  0.004929113033986101  1.20000004127474e-09  0.00018704603242389192  1.0000
  Ga  Ga1       1.0  0.00957882395297672  0.0  0.999489576187431  1.0000
  Ga  Ga2       1.0  0.004927501352755394  9.999999910817625e-11  0.9996827980307369  1.0000
  Ga  Ga3       1.0  0.004245490404361133  0.0  0.9992872159527806  1.0000
  Ga  Ga4       1.0  0.00030252045660896166  0.009999999511667083  0.9998761834871898  1.0000
  Ga  Ga5       1.0  0.008912156855745547  0.0  0.9990848563823265  1.0000
  Ga  Ga6       1.0  0.0019121568851022178  0.0  0.9993883958915074  1.0000
  Ga  Ga7       1.0  0.007245490580501159  0.0  0.9995907558270207  1.0000
  Ga  Ga8       1.0  0.006578823483269986  0.0  0.9991860363184325  1.0000
  Ga  Ga9       1.0  0.002609660669764226  0.009999999511667083  0.9998042276736804  1.0000
  Ga  Ga10      1.0  0.001245490228221108  0.0  0.9989836763750566  1.0000
  Ga  Ga11      1.0  0.00224549028693445  0.0025000000959225373  0.9995907559449386  1.0000
  Ga  Ga12      1.0  0.007638137227640551  0.0025000000959225373  0.9997808167867928  1.0000
  Ga  Ga13      1.0  0.0069121567383188635  0.0025000000959225373  0.9993883960779683  1.0000
  Ga  Ga14      1.0  0.006245490228221108  0.0025000000959225373  0.9989836762623804  1.0000
  Ga  Ga15      1.0  0.00157882363005334  0.0025000000959225373  0.9991860361319715  1.0000
  Ga  Ga16      1.0  0.009921176164449964  0.0024999998779167707  0.9996919474834092  1.0000
  Ga  Ga17      1.0  0.005120240226811988  0.0025000011859513706  0.9998936085474185  1.0000
  Ga  Ga18      1.0  0.004578823659410011  0.0025000000959225373  0.9994895757123164  1.0000
  Ga  Ga19      1.0  0.003912156855745547  0.0025000000959225373  0.9990848561984864  1.0000
  Ga  Ga20      1.0  0.009245490697927843  0.0025000000959225373  0.9992872161313788  1.0000
  Pt  Pt1       1.0  0.0027454901695077665  0.0  0.9991354463147976  1.0000
  Pt  Pt2       1.0  0.008078823718123353  0.0  0.9993378059564155  1.0000
  Pt  Pt3       1.0  0.004157630585517626  0.0  0.9999257643478592  1.0000
  Pt  Pt4       1.0  0.0034121569731722303  0.0  0.9995401658286275  1.0000
  Pt  Pt5       1.0  0.008772662762777434  0.01000000038369015  0.999738413316301  1.0000
  Pt  Pt6       1.0  0.0007454902722561143  0.0025000000959225373  0.999438986006508  1.0000
  Pt  Pt7       1.0  0.006078823600696669  0.0025000000959225373  0.9996413459485736  1.0000
  Pt  Pt8       1.0  0.005412157090598914  0.0025000000959225373  0.9992366261329857  1.0000
  Pt  Pt9       1.0  0.001437887390628787  0.002499999659911004  0.9998350666993525  1.0000
  Pt  Pt10      1.0  7.882355115728694e-05  0.0025000000959225373  0.9990342661946877  1.0000
  Ga  Ga21      1.0  0.00957882395297672  0.005000000191845075  0.999489576187431  1.0000
  Ga  Ga22      1.0  0.004927501352755394  0.005000000191845075  0.9996827980307369  1.0000
  Ga  Ga23      1.0  0.004245490404361133  0.005000000191845075  0.9992872159527806  1.0000
  Ga  Ga24      1.0  0.00030252045660896166  0.004999999319822008  0.9998761834871898  1.0000
  Ga  Ga25      1.0  0.008912156855745547  0.005000000191845075  0.9990848563823265  1.0000
  Ga  Ga26      1.0  0.0019121568851022178  0.005000000191845075  0.9993883958915074  1.0000
  Ga  Ga27      1.0  0.007245490580501159  0.005000000191845075  0.9995907558270207  1.0000
  Ga  Ga28      1.0  0.006578823483269986  0.005000000191845075  0.9991860363184325  1.0000
  Ga  Ga29      1.0  0.002609660669764226  0.004999999319822008  0.9998042276736804  1.0000
  Ga  Ga30      1.0  0.001245490228221108  0.005000000191845075  0.9989836763750566  1.0000
  Ga  Ga31      1.0  0.00224549028693445  0.007500000069761845  0.9995907559449386  1.0000
  Ga  Ga32      1.0  0.007638137227640551  0.007500000069761845  0.9997808167867928  1.0000
  Ga  Ga33      1.0  0.0069121567383188635  0.007500000069761845  0.9993883960779683  1.0000
  Ga  Ga34      1.0  0.006245490228221108  0.007500000069761845  0.9989836762623804  1.0000
  Ga  Ga35      1.0  0.00157882363005334  0.007500000069761845  0.9991860361319715  1.0000
  Ga  Ga36      1.0  0.009921176164449964  0.007500000069761845  0.9996919474834092  1.0000
  Ga  Ga37      1.0  0.005120240226811988  0.007500000941784912  0.9998936085474185  1.0000
  Ga  Ga38      1.0  0.004578823659410011  0.007500000069761845  0.9994895757123164  1.0000
  Ga  Ga39      1.0  0.003912156855745547  0.007500000069761845  0.9990848561984864  1.0000
  Ga  Ga40      1.0  0.009245490697927843  0.007500000069761845  0.9992872161313788  1.0000
  Pt  Pt11      1.0  0.0027454901695077665  0.005000000191845075  0.9991354463147976  1.0000
  Pt  Pt12      1.0  0.008078823718123353  0.005000000191845075  0.9993378059564155  1.0000
  Pt  Pt13      1.0  0.004157630585517626  0.005000000191845075  0.9999257643478592  1.0000
  Pt  Pt14      1.0  0.0034121569731722303  0.005000000191845075  0.9995401658286275  1.0000
  Pt  Pt15      1.0  0.008772662762777434  0.005000000191845075  0.999738413316301  1.0000
  Pt  Pt16      1.0  0.0007454902722561143  0.007500000069761845  0.999438986006508  1.0000
  Pt  Pt17      1.0  0.006078823600696669  0.007500000069761845  0.9996413459485736  1.0000
  Pt  Pt18      1.0  0.005412157090598914  0.007500000069761845  0.9992366261329857  1.0000
  Pt  Pt19      1.0  0.001437887390628787  0.007500000069761845  0.9998350666993525  1.0000
  Pt  Pt20      1.0  7.882355115728694e-05  0.007500000069761845  0.9990342661946877  1.0000
