data_image0
_chemical_formula_structural       HIn9Ni6In9Ni6
_chemical_formula_sum              "H1 In18 Ni12"
_cell_length_a       5.440621852874756
_cell_length_b       11.94598688189084
_cell_length_c       101.60610961914062
_cell_angle_alpha    79.10660530966982
_cell_angle_beta     90.0
_cell_angle_gamma    90.0

_space_group_name_H-M_alt    "P 1"
_space_group_IT_number       1

loop_
  _space_group_symop_operation_xyz
  'x, y, z'

loop_
  _atom_site_type_symbol
  _atom_site_label
  _atom_site_symmetry_multiplicity
  _atom_site_fract_x
  _atom_site_fract_y
  _atom_site_fract_z
  _atom_site_occupancy
  H   H1        1.0  0.006070253513620866  0.009142747706039026  0.9997968579026684  1.0000
  In  In1       1.0  0.006534802318373197  0.008301110963827818  0.9994810026361511  1.0000
  In  In2       1.0  0.006534802318373197  0.004967777681305189  0.999332876392567  1.0000
  In  In3       1.0  0.006534802318373197  0.001634444239999112  0.9991847501525106  1.0000
  In  In4       1.0  0.0036167427806209937  0.006078888987190662  0.9990859993331237  1.0000
  In  In5       1.0  0.0036167427806209937  0.002745555387101138  0.9993822518004963  1.0000
  In  In6       1.0  0.0036167427806209937  0.009412222269713291  0.999234125576708  1.0000
  In  In7       1.0  7.577240035701239e-05  0.007189999657942346  0.9992835009916935  1.0000
  In  In8       1.0  7.577240035701239e-05  0.0038566663754197165  0.9991353747481092  1.0000
  In  In9       1.0  7.577240035701239e-05  0.0005233330928970865  0.9994316272084258  1.0000
  Ni  Ni1       1.0  0.00148962227277472  0.008301110963827818  0.9994810026361511  1.0000
  Ni  Ni2       1.0  0.00148962227277472  0.004967777681305189  0.999332876392567  1.0000
  Ni  Ni3       1.0  0.00148962227277472  0.001634444239999112  0.9991847501525106  1.0000
  Ni  Ni4       1.0  0.008661922483860602  0.006078888987190662  0.9990859993331237  1.0000
  Ni  Ni5       1.0  0.008661922483860602  0.002745555387101138  0.9993822518004963  1.0000
  Ni  Ni6       1.0  0.008661922483860602  0.009412222269713291  0.999234125576708  1.0000
  In  In10      1.0  0.00602516348101647  0.008353035056417765  0.9999313510248062  1.0000
  In  In11      1.0  0.00655213868682838  0.004923585389886377  0.9997866128282535  1.0000
  In  In12      1.0  0.006534802318373197  0.001634444239999112  0.9996291288564115  1.0000
  In  In13      1.0  0.0036167427806209937  0.006078888987190662  0.9995303780370246  1.0000
  In  In14      1.0  0.0036324132308151293  0.002766373802412053  0.9998385468940176  1.0000
  In  In15      1.0  0.0035485825532079367  0.009476666754670803  0.9996663969982104  1.0000
  In  In16      1.0  0.00024685891163233334  0.007082404818545629  0.9997415804606523  1.0000
  In  In17      1.0  7.577240035701239e-05  0.0038566663754197165  0.9995797534520101  1.0000
  In  In18      1.0  0.009924227710695647  0.0006368139155887277  0.9998905001230843  1.0000
  Ni  Ni7       1.0  0.0010683478859498637  0.008566077347873161  0.9998899792255833  1.0000
  Ni  Ni8       1.0  0.0015178314454003664  0.004916369317351294  0.999763320496265  1.0000
  Ni  Ni9       1.0  0.00148962227277472  0.001634444239999112  0.9996291288564115  1.0000
  Ni  Ni10      1.0  0.008661922483860602  0.006078888987190662  0.9995303780370246  1.0000
  Ni  Ni11      1.0  0.008696257654925222  0.0027697879640907344  0.9998103171599172  1.0000
  Ni  Ni12      1.0  0.008591923789316055  0.00936689531178179  0.9996785475730036  1.0000
