data_image0
_chemical_formula_structural       HCr3Se12V6
_chemical_formula_sum              "H1 Cr3 Se12 V6"
_cell_length_a       6.774423911108341
_cell_length_b       6.977755723123186
_cell_length_c       99.80860137939453
_cell_angle_alpha    91.28609383809088
_cell_angle_beta     92.9126123925164
_cell_angle_gamma    118.17982358478234

_space_group_name_H-M_alt    "P 1"
_space_group_IT_number       1

loop_
  _space_group_symop_operation_xyz
  'x, y, z'

loop_
  _atom_site_type_symbol
  _atom_site_label
  _atom_site_symmetry_multiplicity
  _atom_site_fract_x
  _atom_site_fract_y
  _atom_site_fract_z
  _atom_site_occupancy
  H   H1        1.0  0.00013960592931301684  0.0026777341942583123  0.00016214774790365837  1.0000
  Cr  Cr1       1.0  0.007874003410432633  0.009048183608633896  0.9999086361141006  1.0000
  Cr  Cr2       1.0  3.514960642769563e-05  0.00050931608736829  0.9996194617647914  1.0000
  Cr  Cr3       1.0  0.00203514959555148  0.0025093159966941884  0.9993208039901447  1.0000
  Se  Se1       1.0  0.006660776282059539  0.004788695511888407  0.9998361256248738  1.0000
  Se  Se2       1.0  0.009936980657653163  0.002528971503571708  3.823970673186505e-05  1.0000
  Se  Se3       1.0  0.00449868757409662  0.007803527812812282  3.6205083025026554e-05  1.0000
  Se  Se4       1.0  0.0016734227742345993  0.009428823176268338  0.9998284554851592  1.0000
  Se  Se5       1.0  0.008369812061168208  0.006683026999867711  0.9995169543817649  1.0000
  Se  Se6       1.0  0.0017849924114192494  0.004216844885572122  0.9997132066722487  1.0000
  Se  Se7       1.0  0.006333085572564703  0.009474409505019505  0.999699060148612  1.0000
  Se  Se8       1.0  0.003736616526403361  0.0013980759207956833  0.9995184823278054  1.0000
  Se  Se9       1.0  0.00036981182279663465  0.008683027174544241  0.9992182967470894  1.0000
  Se  Se10      1.0  0.0037004876529371836  0.006335605085711056  0.9994233114689972  1.0000
  Se  Se11      1.0  0.008333682913665106  0.001620556201174028  0.9994217835862665  1.0000
  Se  Se12      1.0  0.005736616588326919  0.003398075943843281  0.9992198248521827  1.0000
  V   V1        1.0  0.00046060303390075863  0.005487270928227975  0.99988979948444  1.0000
  V   V2        1.0  0.006263059323517334  0.0011581618006572805  0.9999155695862002  1.0000
  V   V3        1.0  0.002105448866220122  0.007490683966914867  0.9996017599714125  1.0000
  V   V4        1.0  0.00796485072243163  0.0035279482472452346  0.999637163354991  1.0000
  V   V5        1.0  0.0041054487745986815  0.009490683535075668  0.9993031024945466  1.0000
  V   V6        1.0  0.009964850434922973  0.005527948118663899  0.9993385058779254  1.0000
