data_image0
_chemical_formula_structural       COZn24Pt8Zn24Pt8
_chemical_formula_sum              "C1 O1 Zn48 Pt16"
_cell_length_a       5.402968406677246
_cell_length_b       16.819368556725063
_cell_length_c       102.41780853271484
_cell_angle_alpha    99.242737430378
_cell_angle_beta     90.0
_cell_angle_gamma    80.757262569622

_space_group_name_H-M_alt    "P 1"
_space_group_IT_number       1

loop_
  _space_group_symop_operation_xyz
  'x, y, z'

loop_
  _atom_site_type_symbol
  _atom_site_label
  _atom_site_symmetry_multiplicity
  _atom_site_fract_x
  _atom_site_fract_y
  _atom_site_fract_z
  _atom_site_occupancy
  C   C1        1.0  0.00995698110433192  0.0007970768214315283  0.0001878868104453106  1.0000
  O   O1        1.0  0.00995698110433192  0.0007970768214315283  0.00030505358921130226  1.0000
  Zn  Zn1       1.0  0.004418019240114681  0.006875000163751855  0.9992581441895573  1.0000
  Zn  Zn2       1.0  0.006918019315167615  0.001875000013645988  0.9991262587136257  1.0000
  Zn  Zn3       1.0  0.0019180192737982414  0.001875000013645988  0.9993900297506861  1.0000
  Zn  Zn4       1.0  0.009418018936739277  0.006875000163751855  0.9989943731524968  1.0000
  Zn  Zn5       1.0  0.009418018936739277  0.006875000163751855  0.9992581441895573  1.0000
  Zn  Zn6       1.0  0.0019180192737982414  0.001875000013645988  0.9991262587136257  1.0000
  Zn  Zn7       1.0  0.006918019315167615  0.001875000013645988  0.9993900297506861  1.0000
  Zn  Zn8       1.0  0.004418019240114681  0.006875000163751855  0.9989943731524968  1.0000
  Zn  Zn9       1.0  0.006293019314906528  0.008125000400282311  0.9991592300452591  1.0000
  Zn  Zn10      1.0  0.008793019446817745  0.0031250001364598787  0.999027344566328  1.0000
  Zn  Zn11      1.0  0.003793019060703593  0.0031250001364598787  0.9992911156033885  1.0000
  Zn  Zn12      1.0  0.0012930189287923767  0.008125000400282311  0.9994230010823195  1.0000
  Zn  Zn13      1.0  0.00816801892764195  0.009375000181946506  0.9993240869260233  1.0000
  Zn  Zn14      1.0  0.0006680192078426332  0.004375000145557204  0.9991922014530913  1.0000
  Zn  Zn15      1.0  0.005668019249212007  0.004375000145557204  0.9994559724901517  1.0000
  Zn  Zn16      1.0  0.003168019231017356  0.009375000181946506  0.9990603158889628  1.0000
  Zn  Zn17      1.0  0.003168019231017356  0.009375000181946506  0.9993240869260233  1.0000
  Zn  Zn18      1.0  0.005668019249212007  0.004375000145557204  0.9991922014530913  1.0000
  Zn  Zn19      1.0  0.0006680192078426332  0.004375000145557204  0.9994559724901517  1.0000
  Zn  Zn20      1.0  0.00816801892764195  0.009375000181946506  0.9990603158889628  1.0000
  Zn  Zn21      1.0  0.007543019324003856  0.005625000382087661  0.9993570583458535  1.0000
  Zn  Zn22      1.0  4.301919302257102e-05  0.0006250000045486627  0.999225172863923  1.0000
  Zn  Zn23      1.0  0.005043019126659201  0.0006250000045486627  0.9994889439009834  1.0000
  Zn  Zn24      1.0  0.0025430189378897023  0.005625000382087661  0.9990932873087931  1.0000
  Pt  Pt1       1.0  0.007543019324003856  0.005625000382087661  0.9990932873087931  1.0000
  Pt  Pt2       1.0  4.301919302257102e-05  0.0006250000045486627  0.9994889439009834  1.0000
  Pt  Pt3       1.0  0.005043019126659201  0.0006250000045486627  0.999225172863923  1.0000
  Pt  Pt4       1.0  0.0025430189378897023  0.005625000382087661  0.9993570583458535  1.0000
  Pt  Pt5       1.0  0.006293019314906528  0.008125000400282311  0.9994230010823195  1.0000
  Pt  Pt6       1.0  0.008793019446817745  0.0031250001364598787  0.9992911156033885  1.0000
  Pt  Pt7       1.0  0.003793019060703593  0.0031250001364598787  0.999027344566328  1.0000
  Pt  Pt8       1.0  0.0012930189287923767  0.008125000400282311  0.9991592300452591  1.0000
  Zn  Zn25      1.0  0.004418019240114681  0.006875000163751855  0.9997856859726905  1.0000
  Zn  Zn26      1.0  0.006918019315167615  0.001875000013645988  0.9996538004967589  1.0000
  Zn  Zn27      1.0  0.0019180192737982414  0.001875000013645988  0.9999175715338193  1.0000
  Zn  Zn28      1.0  0.009418018936739277  0.006875000163751855  0.9995219152266177  1.0000
  Zn  Zn29      1.0  0.009418018936739277  0.006875000163751855  0.9997856859726905  1.0000
  Zn  Zn30      1.0  0.0019180192737982414  0.001875000013645988  0.9996538004967589  1.0000
  Zn  Zn31      1.0  0.006918019315167615  0.001875000013645988  0.9999175715338193  1.0000
  Zn  Zn32      1.0  0.004418019240114681  0.006875000163751855  0.9995219152266177  1.0000
  Zn  Zn33      1.0  0.006293019314906528  0.008125000400282311  0.99968677211938  1.0000
  Zn  Zn34      1.0  0.008793019446817745  0.0031250001364598787  0.9995548866404489  1.0000
  Zn  Zn35      1.0  0.003793019060703593  0.0031250001364598787  0.9998186573865216  1.0000
  Zn  Zn36      1.0  0.0012930189287923767  0.008125000400282311  0.9999505428654527  1.0000
  Zn  Zn37      1.0  0.00816801892764195  0.009375000181946506  0.9998516287091564  1.0000
  Zn  Zn38      1.0  0.0006680192078426332  0.004375000145557204  0.9997197432362244  1.0000
  Zn  Zn39      1.0  0.005668019249212007  0.004375000145557204  0.9999835142732848  1.0000
  Zn  Zn40      1.0  0.003168019231017356  0.009375000181946506  0.9995878579630837  1.0000
  Zn  Zn41      1.0  0.003168019231017356  0.009375000181946506  0.9998516287091564  1.0000
  Zn  Zn42      1.0  0.005668019249212007  0.004375000145557204  0.9997197432362244  1.0000
  Zn  Zn43      1.0  0.0006680192078426332  0.004375000145557204  0.9999835142732848  1.0000
  Zn  Zn44      1.0  0.00816801892764195  0.009375000181946506  0.9995878579630837  1.0000
  Zn  Zn45      1.0  0.007543019324003856  0.005625000382087661  0.9998846001289866  1.0000
  Zn  Zn46      1.0  4.301919302257102e-05  0.0006250000045486627  0.9997527146470561  1.0000
  Zn  Zn47      1.0  0.005043019126659201  0.0006250000045486627  1.6485684116502582e-05  1.0000
  Zn  Zn48      1.0  0.0025430189378897023  0.005625000382087661  0.999620829382914  1.0000
  Pt  Pt9       1.0  0.007543019324003856  0.005625000382087661  0.999620829382914  1.0000
  Pt  Pt10      1.0  4.301919302257102e-05  0.0006250000045486627  1.6485684116502582e-05  1.0000
  Pt  Pt11      1.0  0.005043019126659201  0.0006250000045486627  0.9997527146470561  1.0000
  Pt  Pt12      1.0  0.0025430189378897023  0.005625000382087661  0.9998846001289866  1.0000
  Pt  Pt13      1.0  0.006293019314906528  0.008125000400282311  0.9999505428654527  1.0000
  Pt  Pt14      1.0  0.008793019446817745  0.0031250001364598787  0.9998186573865216  1.0000
  Pt  Pt15      1.0  0.003793019060703593  0.0031250001364598787  0.9995548866404489  1.0000
  Pt  Pt16      1.0  0.0012930189287923767  0.008125000400282311  0.99968677211938  1.0000
