data_image0
_chemical_formula_structural       Sb16Rh8CO
_chemical_formula_sum              "Sb16 Rh8 C1 O1"
_cell_length_a       6.6856608390808105
_cell_length_b       11.524888541538928
_cell_length_c       98.60212707519531
_cell_angle_alpha    89.25137768936892
_cell_angle_beta     90.0
_cell_angle_gamma    90.0

_space_group_name_H-M_alt    "P 1"
_space_group_IT_number       1

loop_
  _space_group_symop_operation_xyz
  'x, y, z'

loop_
  _atom_site_type_symbol
  _atom_site_label
  _atom_site_symmetry_multiplicity
  _atom_site_fract_x
  _atom_site_fract_y
  _atom_site_fract_z
  _atom_site_occupancy
  Sb  Sb1       1.0  0.006385441955646474  0.00918945483022984  0.9994407988124808  1.0000
  Sb  Sb2       1.0  0.006429613346469011  0.004207775690310659  0.9998086362883593  1.0000
  Sb  Sb3       1.0  0.0013854417216199563  0.00838294415344154  0.9996075524993483  1.0000
  Sb  Sb4       1.0  0.0014979172341995457  0.0033794031588240017  0.9999610738223955  1.0000
  Sb  Sb5       1.0  0.003534591372671708  0.0008331112116569939  0.9997799670755672  1.0000
  Sb  Sb6       1.0  0.003614558233803564  0.005882944024135012  0.9994262547637233  1.0000
  Sb  Sb7       1.0  0.008614557910624087  0.0016894549272097347  0.9996220965300202  1.0000
  Sb  Sb8       1.0  0.008577380569447766  0.006726530761712689  0.9999822572923636  1.0000
  Sb  Sb9       1.0  0.00363228936436579  0.0011482035004415042  0.9994421686555103  1.0000
  Sb  Sb10      1.0  0.0036021863104989302  0.0061850189439235865  0.9998037410126821  1.0000
  Sb  Sb11      1.0  0.008632289319789311  0.0064241952892700824  0.99960618263848  1.0000
  Sb  Sb12      1.0  0.008492229463740671  0.0015258852402494603  0.9999512214577378  1.0000
  Sb  Sb13      1.0  0.006361841495738453  0.008881656156976885  0.9997841982400705  1.0000
  Sb  Sb14      1.0  0.00636771054648125  0.003924195483229875  0.9994248849023614  1.0000
  Sb  Sb15      1.0  0.0013677104517562312  0.0036482036297480324  0.9996234663911353  1.0000
  Sb  Sb16      1.0  0.0014262810205938343  0.008617808126077382  0.9999868394194693  1.0000
  Rh  Rh1       1.0  5.261499771631073e-06  0.00011516059592775468  0.9994548469266124  1.0000
  Rh  Rh2       1.0  1.3872100322570117e-05  0.005146246911642884  0.9998175714381595  1.0000
  Rh  Rh3       1.0  0.00500526165163203  0.007457238072558962  0.9995935043675631  1.0000
  Rh  Rh4       1.0  0.004957592121574396  0.002439774805698839  0.9999278602316197  1.0000
  Rh  Rh5       1.0  0.009969902986246122  0.009884839476807168  0.9997748005319093  1.0000
  Rh  Rh6       1.0  0.009994738771844525  0.004957238266518754  0.9994122069336927  1.0000
  Rh  Rh7       1.0  0.00499473825921501  0.002615160523192833  0.9996361443602976  1.0000
  Rh  Rh8       1.0  0.0049763827793356565  0.007605460206071159  0.9999781307349178  1.0000
  C   C1        1.0  0.006013410557507688  0.001179498266361517  6.842975627126576e-05  1.0000
  O   O1        1.0  0.006013410557507688  0.001179498266361517  0.00019013123142852772  1.0000
