data_image0
_chemical_formula_structural       Co8Sn16CO
_chemical_formula_sum              "Co8 Sn16 C1 O1"
_cell_length_a       5.318889826936002
_cell_length_b       9.099896430969238
_cell_length_c       107.73573303222656
_cell_angle_alpha    90.0
_cell_angle_beta     92.35705581554939
_cell_angle_gamma    90.0

_space_group_name_H-M_alt    "P 1"
_space_group_IT_number       1

loop_
  _space_group_symop_operation_xyz
  'x, y, z'

loop_
  _atom_site_type_symbol
  _atom_site_label
  _atom_site_symmetry_multiplicity
  _atom_site_fract_x
  _atom_site_fract_y
  _atom_site_fract_z
  _atom_site_occupancy
  Co  Co1       1.0  0.008743691893097611  0.005421913070443902  0.9996595840910509  1.0000
  Co  Co2       1.0  0.006146687624488755  0.0004451612916114586  0.9998675104126986  1.0000
  Co  Co3       1.0  0.0012436913182925602  0.00042191298959190184  0.9994406702686129  1.0000
  Co  Co4       1.0  0.003743691276233654  0.005421913070443902  0.9992217564265098  1.0000
  Co  Co5       1.0  0.0012436913182925602  0.005421913070443902  0.9994406702686129  1.0000
  Co  Co6       1.0  0.008743691893097611  0.00042191298959190184  0.9996595840910509  1.0000
  Co  Co7       1.0  0.003743691276233654  0.00042191298959190184  0.9992217564265098  1.0000
  Co  Co8       1.0  0.006147831626736203  0.0053988929706381295  0.9998674977977916  1.0000
  Sn  Sn1       1.0  0.006243691584665633  0.004578086733055032  0.9994406702587804  1.0000
  Sn  Sn2       1.0  0.003743691276233654  0.009578086634804498  0.9996595841001719  1.0000
  Sn  Sn3       1.0  0.008743691893097611  0.009578086634804498  0.999221756417389  1.0000
  Sn  Sn4       1.0  0.0011343499037310893  0.004752827761680993  0.9998887185007974  1.0000
  Sn  Sn5       1.0  0.008865650804260498  0.007922920498655775  0.9998202765826605  1.0000
  Sn  Sn6       1.0  0.006270766304521913  0.0029220914033482523  1.2732291400566135e-05  1.0000
  Sn  Sn7       1.0  0.0012594303743352561  0.0029219129148805594  0.9995870718913282  1.0000
  Sn  Sn8       1.0  0.0037594304198990715  0.007921912611941416  0.9993681586026516  1.0000
  Sn  Sn9       1.0  0.003743691276233654  0.006265738998455553  0.9996595841001719  1.0000
  Sn  Sn10      1.0  0.001135999576702345  0.001091633626213368  0.9998888640352203  1.0000
  Sn  Sn11      1.0  0.006243691584665633  0.0012657389943617817  0.9994406702587804  1.0000
  Sn  Sn12      1.0  0.008743691893097611  0.006265738998455553  0.999221756417389  1.0000
  Sn  Sn13      1.0  0.008727952749432194  0.007921912611941416  0.9995131819149091  1.0000
  Sn  Sn14      1.0  0.006227952441000216  0.0029219129148805594  0.9997320957563006  1.0000
  Sn  Sn15      1.0  0.0012279523498725852  0.0029219129148805594  0.9992942683694512  1.0000
  Sn  Sn16      1.0  0.004164595078610002  0.007921636691695487  0.999965540936928  1.0000
  C   C1        1.0  0.007506740865007466  0.006660906734646952  2.952671844258141e-05  1.0000
  O   O1        1.0  0.007506740865007466  0.006660906734646952  0.00014091060177408063  1.0000
