data_image0
_chemical_formula_structural       Sn14Sb11Pt8CO
_chemical_formula_sum              "Sn14 Sb11 Pt8 C1 O1"
_cell_length_a       9.501325228482084
_cell_length_b       9.52146029858659
_cell_length_c       108.32269287109375
_cell_angle_alpha    90.26914538813742
_cell_angle_beta     90.29449545233284
_cell_angle_gamma    90.22596335967324

_space_group_name_H-M_alt    "P 1"
_space_group_IT_number       1

loop_
  _space_group_symop_operation_xyz
  'x, y, z'

loop_
  _atom_site_type_symbol
  _atom_site_label
  _atom_site_symmetry_multiplicity
  _atom_site_fract_x
  _atom_site_fract_y
  _atom_site_fract_z
  _atom_site_occupancy
  Sn  Sn1       1.0  0.001551872347000529  0.0027274907128167613  0.9996835717878967  1.0000
  Sn  Sn2       1.0  0.006524436894778094  0.0009937127683826556  0.9992386949552373  1.0000
  Sn  Sn3       1.0  0.00337902726716166  0.007799134579306888  0.9992403922511137  1.0000
  Sn  Sn4       1.0  0.0033844434758473095  0.009353873401583328  0.9995513535935826  1.0000
  Sn  Sn5       1.0  0.006599267948025522  0.00934624384351788  0.9998385318195802  1.0000
  Sn  Sn6       1.0  0.00497717342801787  0.006020853618306723  0.9995603017217631  1.0000
  Sn  Sn7       1.0  0.00501357355000998  0.005941283196574927  0.999845939158868  1.0000
  Sn  Sn8       1.0  0.0015518973044463184  0.004344086079293968  0.999378608008649  1.0000
  Sn  Sn9       1.0  0.00666051700699644  0.007890602416508127  0.9992352863393797  1.0000
  Sn  Sn10      1.0  0.008413055290351567  0.0043301646790105475  0.9993788325641598  1.0000
  Sn  Sn11      1.0  0.005215309529411675  0.0050591223922968704  0.9992947071988724  1.0000
  Sn  Sn12      1.0  0.008478741913744129  0.0027500702920966054  0.9996827542946254  1.0000
  Sn  Sn13      1.0  2.3081201413825564e-05  0.007864636095966  0.9999698701628579  1.0000
  Sn  Sn14      1.0  1.296040098240122e-05  0.0009296177314084557  0.9999656402474941  1.0000
  Sb  Sb1       1.0  0.009987039893631084  0.007835960695421557  0.9993742486009148  1.0000
  Sb  Sb2       1.0  0.0015479447198304419  0.00586542621769437  0.999681274740045  1.0000
  Sb  Sb3       1.0  0.008546088933265679  0.0043744208109027976  0.9999921729966914  1.0000
  Sb  Sb4       1.0  0.004994833561497626  0.0028163314388574634  0.999545385982269  1.0000
  Sb  Sb5       1.0  0.008463604092269756  0.0058812377920810805  0.9996802403029992  1.0000
  Sb  Sb6       1.0  0.006529407369799171  0.009346980193686042  0.9995478334118234  1.0000
  Sb  Sb7       1.0  0.003447062428771241  0.009335145379718676  0.9998363616193467  1.0000
  Sb  Sb8       1.0  0.005018078022631605  0.0028398028939121893  0.9998262013202392  1.0000
  Sb  Sb9       1.0  0.0016098555573822262  0.004356499174636756  2.524587725045467e-06  1.0000
  Sb  Sb10      1.0  0.0034521915465923476  0.0009136055387705626  0.9992422810549796  1.0000
  Sb  Sb11      1.0  0.009979067433913809  0.0009425516908114818  0.9993753676641078  1.0000
  Pt  Pt1       1.0  0.002486323464639393  0.0019291249535121247  0.9999009811140455  1.0000
  Pt  Pt2       1.0  0.0024608099737090205  0.006867547541583924  0.9994629759087793  1.0000
  Pt  Pt3       1.0  0.0025024092475208356  0.001844734216120518  0.9994623255245442  1.0000
  Pt  Pt4       1.0  0.0024189878570916178  0.006787769752376504  0.9999007696533317  1.0000
  Pt  Pt5       1.0  0.007476622156635274  0.0018262448624825293  0.9994631947231188  1.0000
  Pt  Pt6       1.0  0.007615601635229134  0.0067992821686081815  0.9998983955266316  1.0000
  Pt  Pt7       1.0  0.007549781784714987  0.0019460091655109596  0.9999001052832359  1.0000
  Pt  Pt8       1.0  0.007496797147525125  0.0068661382252684505  0.9994608712386169  1.0000
  C   C1        1.0  0.00707452490785826  0.0006461265847225943  5.3952201399688655e-05  1.0000
  O   O1        1.0  0.00707452490785826  0.0006461265847225943  0.0001647319872044092  1.0000
