data_image0
_chemical_formula_structural       HGa6Pd10Ga6Pd10
_chemical_formula_sum              "H1 Ga12 Pd20"
_cell_length_a       5.557382583618164
_cell_length_b       11.52802227556228
_cell_length_c       37.22441864013672
_cell_angle_alpha    69.18263114949418
_cell_angle_beta     90.0
_cell_angle_gamma    90.0

_space_group_name_H-M_alt    "P 1"
_space_group_IT_number       1

loop_
  _space_group_symop_operation_xyz
  'x, y, z'

loop_
  _atom_site_type_symbol
  _atom_site_label
  _atom_site_symmetry_multiplicity
  _atom_site_fract_x
  _atom_site_fract_y
  _atom_site_fract_z
  _atom_site_occupancy
  H   H1        1.0  0.0037571477614435616  0.005638666553329454  0.9994174139575034  1.0000
  Ga  Ga1       1.0  0.00047384506803857095  0.0005217589328200331  0.9983015964910643  1.0000
  Ga  Ga2       1.0  0.005550175070289385  0.005416340136272822  0.9989064319538287  1.0000
  Ga  Ga3       1.0  0.007202388793347838  0.009216641079317786  0.9990027566229008  1.0000
  Ga  Ga4       1.0  0.003900823328872463  0.0018354458306059239  0.9987424735742674  1.0000
  Ga  Ga5       1.0  0.0019641204525977386  0.007003505126792235  0.999201443714121  1.0000
  Ga  Ga6       1.0  0.008943684250638972  0.004058023919498909  0.9984626960655578  1.0000
  Pd  Pd1       1.0  0.005473845057983594  0.0005217589328200331  0.9983015964910643  1.0000
  Pd  Pd2       1.0  0.0005485239693171222  0.005553380845093645  0.9988531879709349  1.0000
  Pd  Pd3       1.0  0.00948538407459804  0.008213762187272046  0.9985357947865315  1.0000
  Pd  Pd4       1.0  0.001384936260642295  0.002907144297867452  0.9990867114303229  1.0000
  Pd  Pd5       1.0  0.004494880088794403  0.00782974106477652  0.9985804334561815  1.0000
  Pd  Pd6       1.0  0.006423400224725252  0.0031702570517400043  0.9990620695421142  1.0000
  Pd  Pd7       1.0  0.0073057271444096775  0.006854311662627032  0.9992429536436463  1.0000
  Pd  Pd8       1.0  0.003582739491749921  0.004478240906420089  0.9984164466661488  1.0000
  Pd  Pd9       1.0  0.0023861362195954656  0.009408274459862297  0.9989645181970597  1.0000
  Pd  Pd10      1.0  0.00863076599040591  0.0014686483140184362  0.9987562040171992  1.0000
  Ga  Ga7       1.0  0.00047384506803857095  0.0005217589328200331  0.9972009889436408  1.0000
  Ga  Ga8       1.0  0.005473845057983594  0.005521758858490196  0.9977512927175273  1.0000
  Ga  Ga9       1.0  0.007004005436315862  0.009058023974814136  0.997912392277752  1.0000
  Ga  Ga10      1.0  0.003943684344485424  0.0019854939150263417  0.9975901927379713  1.0000
  Ga  Ga11      1.0  0.0020040056977452653  0.006985493797481484  0.9981404965166141  1.0000
  Ga  Ga12      1.0  0.008943684250638972  0.004058023919498909  0.9973620885181345  1.0000
  Pd  Pd11      1.0  0.005473845057983594  0.0005217589328200331  0.9972009889436408  1.0000
  Pd  Pd12      1.0  0.00047384506803857095  0.005521758858490196  0.9977512927175273  1.0000
  Pd  Pd13      1.0  0.00952615499564295  0.008199750148864338  0.9974565509706272  1.0000
  Pd  Pd14      1.0  0.0014215351203242374  0.002843767568116055  0.9980460344644273  1.0000
  Pd  Pd15      1.0  0.004526155089489403  0.007843767623431282  0.9974957306766215  1.0000
  Pd  Pd16      1.0  0.006421535361643687  0.0031997500935491115  0.9980068547584331  1.0000
  Pd  Pd17      1.0  0.007364950289051365  0.006565276464840137  0.9981867459540732  1.0000
  Pd  Pd18      1.0  0.003582739491749921  0.004478240906420089  0.9973158391187255  1.0000
  Pd  Pd19      1.0  0.0023649505504807684  0.009478240616015148  0.9978661429163932  1.0000
  Pd  Pd20      1.0  0.008582739397903468  0.0015652767552450783  0.9976364421564055  1.0000
