data_image0
_chemical_formula_structural       COCa4In8Cu4Ca4In8Cu4
_chemical_formula_sum              "C1 O1 Ca8 In16 Cu8"
_cell_length_a       10.979975700378418
_cell_length_b       7.6831207275390625
_cell_length_c       101.64393615722656
_cell_angle_alpha    90.0
_cell_angle_beta     90.0
_cell_angle_gamma    90.0

_space_group_name_H-M_alt    "P 1"
_space_group_IT_number       1

loop_
  _space_group_symop_operation_xyz
  'x, y, z'

loop_
  _atom_site_type_symbol
  _atom_site_label
  _atom_site_symmetry_multiplicity
  _atom_site_fract_x
  _atom_site_fract_y
  _atom_site_fract_z
  _atom_site_occupancy
  C   C1        1.0  0.00716818756379014  0.00849523029917074  0.00016459545302241878  1.0000
  O   O1        1.0  0.00716818756379014  0.00849523029917074  0.0002826548746895706  1.0000
  Ca  Ca1       1.0  0.0006837044147770686  0.007499999941815981  0.9993255808551459  1.0000
  Ca  Ca2       1.0  0.004316265246771592  0.002499999980605327  0.9995479531619366  1.0000
  Ca  Ca3       1.0  0.005683704611559688  0.007499999941815981  0.9995479531619366  1.0000
  Ca  Ca4       1.0  0.009316265273914024  0.002499999980605327  0.9993255808551459  1.0000
  In  In1       1.0  0.003570711545972893  0.009491967137728614  0.9993255808551459  1.0000
  In  In2       1.0  0.001429258285215957  0.0005080331786469836  0.9995479531619366  1.0000
  In  In3       1.0  0.001429258285215957  0.004491966691651143  0.9995479531619366  1.0000
  In  In4       1.0  0.003570711545972893  0.005508033230770166  0.9993255808551459  1.0000
  In  In5       1.0  0.008570711573115324  0.009491967137728614  0.9995479531619366  1.0000
  In  In6       1.0  0.006429258651638765  0.0005080331786469836  0.9993255808551459  1.0000
  In  In7       1.0  0.006429258651638765  0.004491966691651143  0.9993255808551459  1.0000
  In  In8       1.0  0.008570711573115324  0.005508033230770166  0.9995479531619366  1.0000
  Cu  Cu1       1.0  0.002851344522535991  0.007499999941815981  0.9995479531619366  1.0000
  Cu  Cu2       1.0  0.002148624969372482  0.002499999980605327  0.9993255808551459  1.0000
  Cu  Cu3       1.0  0.007851344888958799  0.007499999941815981  0.9993255808551459  1.0000
  Cu  Cu4       1.0  0.00714862533579529  0.002499999980605327  0.9995479531619366  1.0000
  Ca  Ca5       1.0  0.000635819400164887  0.007499997032615074  0.9997735322315926  1.0000
  Ca  Ca6       1.0  0.004233514762746064  0.0024999992533051  0.9999883991241173  1.0000
  Ca  Ca7       1.0  0.005766452042061821  0.007499999941815981  0.9999883832911471  1.0000
  Ca  Ca8       1.0  0.009364180484479786  0.002499997313837829  0.9997735328179989  1.0000
  In  In9       1.0  0.0035944411548422227  0.00948573950831991  0.9997730748346766  1.0000
  In  In10      1.0  0.001430058986906405  0.0005095445994308082  0.9999999994135937  1.0000
  In  In11      1.0  0.001430058477985839  0.004490451482845303  0.9999999994135937  1.0000
  In  In12      1.0  0.0035944418334029776  0.005514259405578416  0.9997730748346766  1.0000
  In  In13      1.0  0.008569923085518459  0.009490461141392315  0.0  1.0000
  In  In14      1.0  0.006405515132273966  0.0005142881121183686  0.9997730683842072  1.0000
  In  In15      1.0  0.006405516489395475  0.004485712879434274  0.9997730683842072  1.0000
  In  In16      1.0  0.008569923085518459  0.005509537287639195  0.0  1.0000
  Cu  Cu5       1.0  0.0027744725799678967  0.007499998487215527  0.999980780533435  1.0000
  Cu  Cu6       1.0  0.00219165488178538  0.002499999980605327  0.9997648463814396  1.0000
  Cu  Cu7       1.0  0.0078083472081817455  0.007500000911549617  0.9997648504862837  1.0000
  Cu  Cu8       1.0  0.0072254988051250815  0.002500000465472145  0.9999807776014035  1.0000
