data_image0
_chemical_formula_structural       COAg12Al6
_chemical_formula_sum              "C1 O1 Ag12 Al6"
_cell_length_a       5.071606636047363
_cell_length_b       6.9239764059853455
_cell_length_c       108.65748596191406
_cell_angle_alpha    92.63626580916102
_cell_angle_beta     90.0
_cell_angle_gamma    111.48361377447539

_space_group_name_H-M_alt    "P 1"
_space_group_IT_number       1

loop_
  _space_group_symop_operation_xyz
  'x, y, z'

loop_
  _atom_site_type_symbol
  _atom_site_label
  _atom_site_symmetry_multiplicity
  _atom_site_fract_x
  _atom_site_fract_y
  _atom_site_fract_z
  _atom_site_occupancy
  C   C1        1.0  0.009661103488272772  0.007632835578134685  0.0001235053601115523  1.0000
  O   O1        1.0  0.009661103488272772  0.007632835578134685  0.00023394381364117334  1.0000
  Ag  Ag1       1.0  0.006708691203419309  0.0076588018807351175  0.99989521842433  1.0000
  Ag  Ag2       1.0  0.009569023351168226  0.0028601991727833227  0.9995808670567272  1.0000
  Ag  Ag3       1.0  0.002069024060181117  0.007860199635909065  0.9992843886496113  1.0000
  Ag  Ag4       1.0  0.002591391520849168  0.00961001952630758  0.9999811674158566  1.0000
  Ag  Ag5       1.0  0.005458824383183319  0.004639800942998113  0.9996863896268364  1.0000
  Ag  Ag6       1.0  0.007958824325292602  0.009639800827216678  0.9993899114923015  1.0000
  Ag  Ag7       1.0  0.00948366220295547  0.005230552562734087  1.5330517444203314e-05  1.0000
  Ag  Ag8       1.0  0.0019490956656272166  0.0003601992668557393  0.9997291061241007  1.0000
  Ag  Ag9       1.0  0.004449095734372443  0.005360199404346194  0.9994326279903081  1.0000
  Ag  Ag10      1.0  0.0028388963879169677  0.0021398007114352413  0.9992416721807572  1.0000
  Ag  Ag11      1.0  0.007760686900017317  0.0019170495307887845  0.9998386133063226  1.0000
  Ag  Ag12      1.0  0.00033889647693394843  0.007139800595653806  0.9995381505587205  1.0000
  Al  Al1       1.0  0.003853452754232079  0.0012499999710546411  0.999485389152376  1.0000
  Al  Al2       1.0  0.006353452768704759  0.0062499999999999995  0.9991889107439875  1.0000
  Al  Al3       1.0  0.0012124823792373958  0.0061759230373935135  0.9997828396824628  1.0000
  Al  Al4       1.0  0.00855446705721651  0.0037500000578907177  0.9993371500855327  1.0000
  Al  Al5       1.0  0.003569376406328006  0.0036087113929118048  0.9999332394460891  1.0000
  Al  Al6       1.0  0.006054467290960288  0.008750000231562872  0.999633627915789  1.0000
