data_image0
_chemical_formula_structural       HPt24Rh8Pt24Rh8
_chemical_formula_sum              "H1 Pt48 Rh16"
_cell_length_a       5.587407112121582
_cell_length_b       16.336933001967683
_cell_length_c       103.52444458007812
_cell_angle_alpha    99.84627953569934
_cell_angle_beta     90.0
_cell_angle_gamma    80.15372046430066

_space_group_name_H-M_alt    "P 1"
_space_group_IT_number       1

loop_
  _space_group_symop_operation_xyz
  'x, y, z'

loop_
  _atom_site_type_symbol
  _atom_site_label
  _atom_site_symmetry_multiplicity
  _atom_site_fract_x
  _atom_site_fract_y
  _atom_site_fract_z
  _atom_site_occupancy
  H   H1        1.0  0.0036794024572688443  0.007683574665756709  0.00017279049359630115  1.0000
  Pt  Pt1       1.0  0.004389538353752257  0.006260827972123009  0.9993584830732124  1.0000
  Pt  Pt2       1.0  0.006889538386652883  0.001260827906321757  0.9992235534146106  1.0000
  Pt  Pt3       1.0  0.001889538640010171  0.001260827906321757  0.9994934126246271  1.0000
  Pt  Pt4       1.0  0.009389539100489527  0.006260827972123009  0.9990886235753188  1.0000
  Pt  Pt5       1.0  0.009389539100489527  0.006260827972123009  0.9993584830732124  1.0000
  Pt  Pt6       1.0  0.001889538640010171  0.001260827906321757  0.9992235534146106  1.0000
  Pt  Pt7       1.0  0.006889538386652883  0.001260827906321757  0.9994934126246271  1.0000
  Pt  Pt8       1.0  0.004389538353752257  0.006260827972123009  0.9990886235753188  1.0000
  Pt  Pt9       1.0  0.006264538689520176  0.00751082804732444  0.9992572857405015  1.0000
  Pt  Pt10      1.0  0.008764538722420803  0.0025108279815231884  0.9991223560818997  1.0000
  Pt  Pt11      1.0  0.003764538642413237  0.0025108279815231884  0.9993922152919161  1.0000
  Pt  Pt12      1.0  0.0012645386095126116  0.00751082804732444  0.999527144950518  1.0000
  Pt  Pt13      1.0  0.00813953926029257  0.008760827652516925  0.9994259478930007  1.0000
  Pt  Pt14      1.0  0.0006395386823109761  0.0037608278217201464  0.9992910182407406  1.0000
  Pt  Pt15      1.0  0.005639538428953688  0.0037608278217201464  0.9995608774507571  1.0000
  Pt  Pt16      1.0  0.0031395385135552993  0.008760827652516925  0.9991560883951071  1.0000
  Pt  Pt17      1.0  0.0031395385135552993  0.008760827652516925  0.9994259478930007  1.0000
  Pt  Pt18      1.0  0.005639538428953688  0.0037608278217201464  0.9992910182407406  1.0000
  Pt  Pt19      1.0  0.0006395386823109761  0.0037608278217201464  0.9995608774507571  1.0000
  Pt  Pt20      1.0  0.00813953926029257  0.008760827652516925  0.9991560883951071  1.0000
  Pt  Pt21      1.0  0.0075145387647216075  0.005010827896921578  0.9994596801180462  1.0000
  Pt  Pt22      1.0  1.4538600534502347e-05  1.0827949540548674e-05  0.99932475046264  1.0000
  Pt  Pt23      1.0  0.005014538658404557  1.0827949540548674e-05  0.9995946099605336  1.0000
  Pt  Pt24      1.0  0.002514538684714043  0.005010827896921578  0.9991898209080298  1.0000
  Rh  Rh1       1.0  0.0075145387647216075  0.005010827896921578  0.9991898209080298  1.0000
  Rh  Rh2       1.0  1.4538600534502347e-05  1.0827949540548674e-05  0.9995946099605336  1.0000
  Rh  Rh3       1.0  0.005014538658404557  1.0827949540548674e-05  0.99932475046264  1.0000
  Rh  Rh4       1.0  0.002514538684714043  0.005010827896921578  0.9994596801180462  1.0000
  Rh  Rh5       1.0  0.006264538689520176  0.00751082804732444  0.999527144950518  1.0000
  Rh  Rh6       1.0  0.008764538722420803  0.0025108279815231884  0.9993922152919161  1.0000
  Rh  Rh7       1.0  0.003764538642413237  0.0025108279815231884  0.9991223560818997  1.0000
  Rh  Rh8       1.0  0.0012645386095126116  0.00751082804732444  0.9992572857405015  1.0000
  Pt  Pt25      1.0  0.0044133605966230555  0.006221333590301637  0.999907255446133  1.0000
  Pt  Pt26      1.0  0.006889538386652883  0.001260827906321757  0.9997632721225207  1.0000
  Pt  Pt27      1.0  0.0018351270734507626  0.001294411925632522  3.49303356291387e-05  1.0000
  Pt  Pt28      1.0  0.009389539100489527  0.006260827972123009  0.9996283422832288  1.0000
  Pt  Pt29      1.0  0.009405283996016053  0.006221281419308502  0.9999072551897589  1.0000
  Pt  Pt30      1.0  0.001889538640010171  0.001260827906321757  0.9997632721225207  1.0000
  Pt  Pt31      1.0  0.006911349008225971  0.0012948566715987775  3.494291326756534e-05  1.0000
  Pt  Pt32      1.0  0.004389538353752257  0.006260827972123009  0.9996283422832288  1.0000
  Pt  Pt33      1.0  0.006264538689520176  0.00751082804732444  0.9997970044484116  1.0000
  Pt  Pt34      1.0  0.008764538722420803  0.0025108279815231884  0.9996620747898097  1.0000
  Pt  Pt35      1.0  0.00376877460407337  0.002501389966859631  0.9999433265279498  1.0000
  Pt  Pt36      1.0  0.0012734028867642188  0.007495443714465819  5.339989015635138e-05  1.0000
  Pt  Pt37      1.0  0.008129439494180485  0.00877006614838241  0.9999768005454868  1.0000
  Pt  Pt38      1.0  0.0006395386823109761  0.0037608278217201464  0.9998307369486507  1.0000
  Pt  Pt39      1.0  0.005632042642903505  0.003795197225981625  9.060590801816861e-05  1.0000
  Pt  Pt40      1.0  0.0031395385135552993  0.008760827652516925  0.9996958071030171  1.0000
  Pt  Pt41      1.0  0.003141185497664716  0.008770054868167678  0.9999768036956056  1.0000
  Pt  Pt42      1.0  0.005639538428953688  0.0037608278217201464  0.9998307369486507  1.0000
  Pt  Pt43      1.0  0.0006151708370064736  0.0037955765232019875  9.05706591167258e-05  1.0000
  Pt  Pt44      1.0  0.00813953926029257  0.008760827652516925  0.9996958071030171  1.0000
  Pt  Pt45      1.0  0.00749682471775362  0.005046792041540789  7.918930236025934e-06  1.0000
  Pt  Pt46      1.0  2.6177245397507606e-05  0.009989171595468757  0.9998588487343839  1.0000
  Pt  Pt47      1.0  0.004981487042645424  7.591975209554805e-05  0.00011991891407013539  1.0000
  Pt  Pt48      1.0  0.002514538684714043  0.005010827896921578  0.9997295396159398  1.0000
  Rh  Rh9       1.0  0.0075145387647216075  0.005010827896921578  0.9997295396159398  1.0000
  Rh  Rh10      1.0  0.009985461079194234  6.458685229815423e-05  0.00011561159278517545  1.0000
  Rh  Rh11      1.0  0.005027623051938837  0.009987578265137867  0.9998587216767523  1.0000
  Rh  Rh12      1.0  0.0025145613001390016  0.005012106791266815  0.9999980949972263  1.0000
  Rh  Rh13      1.0  0.00627504331453236  0.007492424376989227  4.900255624233556e-05  1.0000
  Rh  Rh14      1.0  0.00877038846101367  0.002498371099391987  0.999938881419112  1.0000
  Rh  Rh15      1.0  0.003764538642413237  0.0025108279815231884  0.9996620747898097  1.0000
  Rh  Rh16      1.0  0.0012645386095126116  0.00751082804732444  0.9997970044484116  1.0000
