data_image0
_chemical_formula_structural       HMn6Al20
_chemical_formula_sum              "H1 Mn6 Al20"
_cell_length_a       7.5461627183024635
_cell_length_b       7.5461626052856445
_cell_length_c       101.26148223876953
_cell_angle_alpha    90.0
_cell_angle_beta     90.0
_cell_angle_gamma    119.99999950457386

_space_group_name_H-M_alt    "P 1"
_space_group_IT_number       1

loop_
  _space_group_symop_operation_xyz
  'x, y, z'

loop_
  _atom_site_type_symbol
  _atom_site_label
  _atom_site_symmetry_multiplicity
  _atom_site_fract_x
  _atom_site_fract_y
  _atom_site_fract_z
  _atom_site_occupancy
  H   H1        1.0  0.0004443128075214761  0.001791836294379962  4.3859335191555204e-05  1.0000
  Mn  Mn1       1.0  0.002766569456143131  0.006155353808255699  0.9998780018027816  1.0000
  Mn  Mn2       1.0  0.001701224064485691  0.0038076105397892345  0.9994895751554242  1.0000
  Mn  Mn3       1.0  0.001701224064485691  0.0074389678333417085  0.9994895751554242  1.0000
  Mn  Mn4       1.0  0.009352860090868881  0.0027412534143986715  0.9998779411748085  1.0000
  Mn  Mn5       1.0  0.009351631090315662  0.006157078099105744  0.999877852881644  1.0000
  Mn  Mn6       1.0  0.00806986730880053  0.0038076106544520016  0.9994895751554242  1.0000
  Al  Al1       1.0  0.000490771814490762  0.005018063184984718  0.9992966248654648  1.0000
  Al  Al2       1.0  0.000490771814490762  0.005018063184984718  0.9996825254453837  1.0000
  Al  Al3       1.0  0.009555687364914826  0.009550595010223763  0.9998885987483938  1.0000
  Al  Al4       1.0  0.005059667589233375  0.0004491674964229554  0.9994895751554242  1.0000
  Al  Al5       1.0  0.005059667589233375  0.004155854031205537  0.9994895751554242  1.0000
  Al  Al6       1.0  0.005957827577944264  0.005952737696823094  0.9998886764463786  1.0000
  Al  Al7       1.0  0.005957524888104858  0.009550832669543647  0.9998887135295077  1.0000
  Al  Al8       1.0  0.0013529808293425245  0.0004491674147229986  0.9994895751554242  1.0000
  Al  Al9       1.0  0.0044941298168065915  0.007019742186142633  0.9993467274103234  1.0000
  Al  Al10      1.0  0.0024829986698702584  0.0030252103382162362  0.9997266090452133  1.0000
  Al  Al11      1.0  0.0024823391366420237  0.0090025493790057  0.9997266372990259  1.0000
  Al  Al12      1.0  0.008489092736377803  0.0010147048589427194  0.9993467274103234  1.0000
  Al  Al13      1.0  0.008489092736377803  0.007019741939246913  0.9993467274103234  1.0000
  Al  Al14      1.0  0.006625708433313326  0.0030864406590297476  0.9999999876389569  1.0000
  Al  Al15      1.0  0.00242439113351665  0.0030836604184687026  2.825381266366021e-08  1.0000
  Al  Al16      1.0  0.006507807035621845  0.0030268528676911785  0.9997266708504284  1.0000
  Al  Al17      1.0  0.0024219995417629255  0.008882994287625063  0.0  1.0000
  Al  Al18      1.0  0.008489092736377803  0.0010147048589427194  0.9996324226062145  1.0000
  Al  Al19      1.0  0.0044941298168065915  0.007019742186142633  0.9996324226062145  1.0000
  Al  Al20      1.0  0.008489092736377803  0.007019741939246913  0.9996324226062145  1.0000
