data_image0
_chemical_formula_structural       COY8
_chemical_formula_sum              "C1 O1 Y8"
_cell_length_a       5.765637397766113
_cell_length_b       6.387447834014893
_cell_length_c       99.50235748291016
_cell_angle_alpha    90.0
_cell_angle_beta     90.0
_cell_angle_gamma    90.0

_space_group_name_H-M_alt    "P 1"
_space_group_IT_number       1

loop_
  _space_group_symop_operation_xyz
  'x, y, z'

loop_
  _atom_site_type_symbol
  _atom_site_label
  _atom_site_symmetry_multiplicity
  _atom_site_fract_x
  _atom_site_fract_y
  _atom_site_fract_z
  _atom_site_occupancy
  C   C1        1.0  0.007499999819086563  0.006666666581127666  0.00020100067010566573  1.0000
  O   O1        1.0  0.007499999819086563  0.006666666581127666  0.0003216004731416021  1.0000
  Y   Y1        1.0  0.007499999819086563  0.006666666581127666  0.9996293763173333  1.0000
  Y   Y2        1.0  0.007499999819086563  0.0016666667910870327  0.9994440644759999  1.0000
  Y   Y3        1.0  0.002499999993538806  0.003333333290563833  0.9996293763173333  1.0000
  Y   Y4        1.0  0.002499999993538806  0.008333333372214698  0.9994440644759999  1.0000
  Y   Y5        1.0  0.007499999819086563  0.006666666581127666  0.0  1.0000
  Y   Y6        1.0  0.007499999819086563  0.0016666667910870327  0.9998146881586666  1.0000
  Y   Y7        1.0  0.002499999993538806  0.003333333290563833  0.0  1.0000
  Y   Y8        1.0  0.002499999993538806  0.008333333372214698  0.9998146881586666  1.0000
