data_image0
_chemical_formula_structural       HSn2Au2Sn2Au2Sn2Au2Sn2Au2
_chemical_formula_sum              "H1 Sn8 Au8"
_cell_length_a       8.904863669771737
_cell_length_b       5.707462310791016
_cell_length_c       105.61945343017578
_cell_angle_alpha    90.0
_cell_angle_beta     119.9999988401381
_cell_angle_gamma    90.0

_space_group_name_H-M_alt    "P 1"
_space_group_IT_number       1

loop_
  _space_group_symop_operation_xyz
  'x, y, z'

loop_
  _atom_site_type_symbol
  _atom_site_label
  _atom_site_symmetry_multiplicity
  _atom_site_fract_x
  _atom_site_fract_y
  _atom_site_fract_z
  _atom_site_occupancy
  H   H1        1.0  0.006066776023491648  0.00619820209899965  0.00035042632215559396  1.0000
  Sn  Sn1       1.0  0.0017228725220812325  0.008749998746806025  0.9996656866172885  1.0000
  Sn  Sn2       1.0  0.0033895391758662656  0.003749998903455273  0.99952516859603  1.0000
  Au  Au1       1.0  5.620580036570983e-05  0.006249998825130649  0.9998062046356834  1.0000
  Au  Au2       1.0  5.620580036570983e-05  0.0012499988186035977  0.9998062046356834  1.0000
  Sn  Sn3       1.0  0.0017510645810317718  0.008750001357626805  9.196470217742425e-05  1.0000
  Sn  Sn4       1.0  0.003336608704442377  0.003749994008166313  0.9999376302025392  1.0000
  Au  Au3       1.0  0.00994379381288337  0.00619820209899965  0.00020840712814227609  1.0000
  Au  Au4       1.0  0.009943792846760849  0.0013017947288531035  0.00020840765174894575  1.0000
  Sn  Sn5       1.0  0.006722872724966962  0.008749998746806025  0.9996656866484146  1.0000
  Sn  Sn6       1.0  0.008389539378751995  0.003749998903455273  0.9995251686271561  1.0000
  Au  Au5       1.0  0.005056205588120669  0.006249998825130649  0.9998062046493095  1.0000
  Au  Au6       1.0  0.005056205588120669  0.0012499988186035977  0.9998062046493095  1.0000
  Sn  Sn7       1.0  0.006751064663152186  0.008750001357626805  9.196472821260274e-05  1.0000
  Sn  Sn8       1.0  0.008336608424266846  0.003749994008166313  0.9999376304954687  1.0000
  Au  Au7       1.0  0.004943794334589529  0.00619820209899965  0.00020840712756165622  1.0000
  Au  Au8       1.0  0.00494379240234449  0.0013017947288531035  0.00020840761044103209  1.0000
