data_image0
_chemical_formula_structural       COAl5Pt15Al5Pt15
_chemical_formula_sum              "C1 O1 Al10 Pt30"
_cell_length_a       5.568798542022705
_cell_length_b       8.805043702224786
_cell_length_c       110.9221420288086
_cell_angle_alpha    75.03678408985395
_cell_angle_beta     90.0
_cell_angle_gamma    71.56505137341287

_space_group_name_H-M_alt    "P 1"
_space_group_IT_number       1

loop_
  _space_group_symop_operation_xyz
  'x, y, z'

loop_
  _atom_site_type_symbol
  _atom_site_label
  _atom_site_symmetry_multiplicity
  _atom_site_fract_x
  _atom_site_fract_y
  _atom_site_fract_z
  _atom_site_occupancy
  C   C1        1.0  0.00276421555911956  0.00979350163929544  0.0001326345937667813  1.0000
  O   O1        1.0  0.00276421555911956  0.00979350163929544  0.00024081880387316778  1.0000
  Al  Al1       1.0  0.008056345666986507  0.0042064981085782735  0.9988819301344585  1.0000
  Al  Al2       1.0  0.006056346034052716  0.008206497374445856  0.9990049054512791  1.0000
  Al  Al3       1.0  5.634589379699137e-05  0.00020649819095961013  0.9993738321458987  1.0000
  Al  Al4       1.0  0.004056345634912205  0.002206498012177047  0.9991278810086598  1.0000
  Al  Al5       1.0  0.002056345770244696  0.0062064977415120645  0.999250856584659  1.0000
  Pt  Pt1       1.0  5.6346088686361354e-05  0.005206497693311452  0.9990663932299694  1.0000
  Pt  Pt2       1.0  0.008056346152834968  0.009206497886113904  0.9991893687964694  1.0000
  Pt  Pt3       1.0  0.0020563458954204407  0.0012064980798432924  0.9989434179202733  1.0000
  Pt  Pt4       1.0  0.0060563459854281725  0.0032064980603776602  0.9993123443633494  1.0000
  Pt  Pt5       1.0  0.004056346120760664  0.007206497789712678  0.9988204423557681  1.0000
  Pt  Pt6       1.0  0.00905634571518712  0.002206498012177047  0.9991278810086598  1.0000
  Pt  Pt7       1.0  0.007056345850519612  0.0062064977415120645  0.999250856584659  1.0000
  Pt  Pt8       1.0  0.0010563459537778  0.008206497374445856  0.9990049054512791  1.0000
  Pt  Pt9       1.0  0.005056345545520923  0.00020649819095961013  0.9993738321458987  1.0000
  Pt  Pt10      1.0  0.003056345586711591  0.0042064981085782735  0.9988819301344585  1.0000
  Pt  Pt11      1.0  0.005056346168961277  0.005206497693311452  0.9990663932299694  1.0000
  Pt  Pt12      1.0  0.0030563460725600514  0.009206497886113904  0.9991893687964694  1.0000
  Pt  Pt13      1.0  0.007056345975695356  0.0012064980798432924  0.9989434179202733  1.0000
  Pt  Pt14      1.0  0.0010563459051532568  0.0032064980603776602  0.9993123443633494  1.0000
  Pt  Pt15      1.0  0.00905634620103558  0.007206497789712678  0.9988204423557681  1.0000
  Al  Al6       1.0  0.008056345666986507  0.0042064981085782735  0.9994968077180388  1.0000
  Al  Al7       1.0  0.006056346034052716  0.008206497374445856  0.9996197833035373  1.0000
  Al  Al8       1.0  0.009943653823289765  0.00043352208009101405  0.9999658432614796  1.0000
  Al  Al9       1.0  0.004087657559862671  0.0021445678713428637  0.9997434913583111  1.0000
  Al  Al10      1.0  0.002068732378310778  0.0061842893089497355  0.999858167436183  1.0000
  Pt  Pt16      1.0  5.6346088686361354e-05  0.005206497693311452  0.9996812710822276  1.0000
  Pt  Pt17      1.0  0.008185205148532  0.00905098324208537  0.9998144916954427  1.0000
  Pt  Pt18      1.0  0.0020563458954204407  0.0012064980798432924  0.9995582955038537  1.0000
  Pt  Pt19      1.0  0.00601606590987103  0.0032554620045095605  0.9999243180270191  1.0000
  Pt  Pt20      1.0  0.004056346120760664  0.007206497789712678  0.9994353199393485  1.0000
  Pt  Pt21      1.0  0.009058835779148395  0.002201531263407186  0.9997382770149627  1.0000
  Pt  Pt22      1.0  0.007060734367568034  0.0061988458941560805  0.9998677462204937  1.0000
  Pt  Pt23      1.0  0.0010563459537778  0.008206497374445856  0.9996197833035373  1.0000
  Pt  Pt24      1.0  0.00499829732059682  0.00032644047824730054  0.9999748737001273  1.0000
  Pt  Pt25      1.0  0.003056345586711591  0.0042064981085782735  0.9994968077180388  1.0000
  Pt  Pt26      1.0  0.005056346168961277  0.005206497693311452  0.9996812710822276  1.0000
  Pt  Pt27      1.0  0.0030862220698343102  0.009052826915542796  0.9998143862008259  1.0000
  Pt  Pt28      1.0  0.007056345975695356  0.0012064980798432924  0.9995582955038537  1.0000
  Pt  Pt29      1.0  0.0010471730453049852  0.003255103744182112  0.9999243511629705  1.0000
  Pt  Pt30      1.0  0.00905634620103558  0.007206497789712678  0.9994353199393485  1.0000
