data_image0
_chemical_formula_structural       V3Si6V3Si6H
_chemical_formula_sum              "V6 Si12 H1"
_cell_length_a       4.582750265610589
_cell_length_b       6.397007465362549
_cell_length_c       33.33799743652344
_cell_angle_alpha    90.0
_cell_angle_beta     59.999999604263245
_cell_angle_gamma    90.0

_space_group_name_H-M_alt    "P 1"
_space_group_IT_number       1

loop_
  _space_group_symop_operation_xyz
  'x, y, z'

loop_
  _atom_site_type_symbol
  _atom_site_label
  _atom_site_symmetry_multiplicity
  _atom_site_fract_x
  _atom_site_fract_y
  _atom_site_fract_z
  _atom_site_occupancy
  V   V1        1.0  0.005007667975248737  0.0033348690533977236  0.9989749476942741  1.0000
  V   V2        1.0  0.004898188160050587  0.006671869503791026  0.9996271919628122  1.0000
  V   V3        1.0  0.0003715778547891863  0.00999846367041042  0.9996271910853122  1.0000
  Si  Si1       1.0  0.006726171748798619  5.0692198370008206e-05  0.9992338367076598  1.0000
  Si  Si2       1.0  0.008379249797942625  0.006668202452730599  0.998751099733242  1.0000
  Si  Si3       1.0  0.008278946686349164  0.003334532164555663  0.9994500297589632  1.0000
  Si  Si4       1.0  0.0032645054186939988  1.5357999364240672e-06  0.9987510998874262  1.0000
  Si  Si5       1.0  0.0014062655299505078  0.006619340467781402  0.9992341283150679  1.0000
  Si  Si6       1.0  0.0017057170252396604  0.0033349421381854132  0.9998827632754657  1.0000
  V   V4        1.0  0.005007667975248737  0.0033348690533977236  0.9976003147979828  1.0000
  V   V5        1.0  0.005007667975248737  0.006668202452730599  0.9982876312461285  1.0000
  V   V6        1.0  7.667950187538021e-06  1.5357999364240672e-06  0.9982876312120932  1.0000
  Si  Si7       1.0  0.0067508305318034765  1.5357999364240672e-06  0.9978241626048309  1.0000
  Si  Si8       1.0  0.008379249797942625  0.006668202452730599  0.9973764672839232  1.0000
  Si  Si9       1.0  0.008379249797942625  0.0033348690533977236  0.9980480105267834  1.0000
  Si  Si10      1.0  0.0032645054186939988  1.5357999364240672e-06  0.9973764669911349  1.0000
  Si  Si11      1.0  0.0016360866218794346  0.006668202452730599  0.9978241627267574  1.0000
  Si  Si12      1.0  0.0016360866218794346  0.0033348690533977236  0.9985272519332161  1.0000
  H   H1        1.0  0.009992332475302864  0.003334737151370538  0.00011633357168728567  1.0000
