data_image0
_chemical_formula_structural       Al24Re4CO
_chemical_formula_sum              "Al24 Re4 C1 O1"
_cell_length_a       5.0807171948889565
_cell_length_b       9.10397720336914
_cell_length_c       100.18727111816406
_cell_angle_alpha    90.0
_cell_angle_beta     91.45559011636446
_cell_angle_gamma    90.0

_space_group_name_H-M_alt    "P 1"
_space_group_IT_number       1

loop_
  _space_group_symop_operation_xyz
  'x, y, z'

loop_
  _atom_site_type_symbol
  _atom_site_label
  _atom_site_symmetry_multiplicity
  _atom_site_fract_x
  _atom_site_fract_y
  _atom_site_fract_z
  _atom_site_occupancy
  Al  Al1       1.0  0.007794101205518646  0.0005021662670524445  0.9994309243005227  1.0000
  Al  Al2       1.0  0.009830399978482101  0.0006040529458667741  0.9999326807900515  1.0000
  Al  Al3       1.0  0.0002228877161494923  0.0055021660685934904  0.9991050285191171  1.0000
  Al  Al4       1.0  0.0018895545429544938  0.0055021660685934904  0.9996072092800016  1.0000
  Al  Al5       1.0  0.0002228877161494923  0.0005021662670524445  0.9991050285191171  1.0000
  Al  Al6       1.0  0.0018895545429544938  0.0005021662670524445  0.9996072092800016  1.0000
  Al  Al7       1.0  0.007794101205518646  0.0055021660685934904  0.9994309243005227  1.0000
  Al  Al8       1.0  0.009830353770626717  0.0054002899265174495  0.999932681325459  1.0000
  Al  Al9       1.0  0.0049684255709800534  0.00655493435184029  0.9998707795403226  1.0000
  Al  Al10      1.0  0.0029157347446833798  0.006506498500399949  0.9993338280490243  1.0000
  Al  Al11      1.0  0.005101254085302506  0.0015064987500081183  0.9992021247704975  1.0000
  Al  Al12      1.0  0.006767920820425254  0.0015064987500081183  0.9997043058287299  1.0000
  Al  Al13      1.0  0.0049684736124804936  0.009449365720926792  0.999870782576871  1.0000
  Al  Al14      1.0  0.0029157347446833798  0.009497833898671012  0.9993338280490243  1.0000
  Al  Al15      1.0  0.005101254085302506  0.004497833636787031  0.9992021247704975  1.0000
  Al  Al16      1.0  0.006767920820425254  0.004497833636787031  0.9997043058287299  1.0000
  Al  Al17      1.0  0.00624006868499919  0.0030021649146672  0.9999702733233756  1.0000
  Al  Al18      1.0  0.0043694463438725345  0.00300216614224836  0.9994631590140697  1.0000
  Al  Al19      1.0  0.0053142092212361  0.00800216619953548  0.9995749745662185  1.0000
  Al  Al20      1.0  0.003647542486113351  0.00800216619953548  0.9990727938054521  1.0000
  Al  Al21      1.0  0.0001696002030487585  0.00300216614224836  0.9992823805882066  1.0000
  Al  Al22      1.0  0.0019771470337713645  0.0030021690066043996  0.9997820519514198  1.0000
  Al  Al23      1.0  0.007847388397731496  0.00800216619953548  0.9992535722310198  1.0000
  Al  Al24      1.0  0.009641266092186355  0.00800216538114804  0.999748785113457  1.0000
  Re  Re1       1.0  0.0012588519728448256  0.003002177599672519  2.554209255113367e-05  1.0000
  Re  Re2       1.0  0.009473545512842298  0.00300216614224836  0.9995412601329875  1.0000
  Re  Re3       1.0  0.001345173472591859  0.008002167017922921  0.9999765017688648  1.0000
  Re  Re4       1.0  0.00021010970845788818  0.00800216619953548  0.9994968734468577  1.0000
  C   C1        1.0  0.00730487003569793  0.008725765551037417  9.410110350083422e-06  1.0000
  O   O1        1.0  0.00730487003569793  0.008725765551037417  0.0001291854528673694  1.0000
