data_image0
_chemical_formula_structural       COTi12Ga18Ti12Ga18
_chemical_formula_sum              "C1 O1 Ti24 Ga36"
_cell_length_a       8.074902534484863
_cell_length_b       14.179365219961543
_cell_length_c       105.87126922607422
_cell_angle_alpha    71.56505056777132
_cell_angle_beta     90.0
_cell_angle_gamma    90.0

_space_group_name_H-M_alt    "P 1"
_space_group_IT_number       1

loop_
  _space_group_symop_operation_xyz
  'x, y, z'

loop_
  _atom_site_type_symbol
  _atom_site_label
  _atom_site_symmetry_multiplicity
  _atom_site_fract_x
  _atom_site_fract_y
  _atom_site_fract_z
  _atom_site_occupancy
  C   C1        1.0  0.002500000064587856  0.005171377289782929  0.9996790801850307  1.0000
  O   O1        1.0  0.002500000064587856  0.005171377289782929  0.9997924250499952  1.0000
  Ti  Ti1       1.0  0.002499999603246028  0.007577190468196103  0.9995261917184739  1.0000
  Ti  Ti2       1.0  0.002500000064587856  0.004233026238079006  0.9992478458991434  1.0000
  Ti  Ti3       1.0  0.002500000064587856  0.0008996929721338463  0.9989654962031201  1.0000
  Ti  Ti4       1.0  0.002500000064587856  0.008876157329290462  0.9989440312620891  1.0000
  Ti  Ti5       1.0  0.002500000064587856  0.005578553249811168  0.9995066308567041  1.0000
  Ti  Ti6       1.0  0.002500000064587856  0.002209490243524745  0.9992263810405672  1.0000
  Ti  Ti7       1.0  0.002500000064587856  0.005076475171352211  0.9989550184024921  1.0000
  Ti  Ti8       1.0  0.0025000007566005986  0.0017552807078623294  0.999516026783234  1.0000
  Ti  Ti9       1.0  0.002500000064587856  0.008409808091125246  0.9992373681131766  1.0000
  Ti  Ti10      1.0  0.002500000064587856  0.006386272511977533  0.9992159037999986  1.0000
  Ti  Ti11      1.0  0.002500000064587856  0.003052939038329099  0.9989335538312762  1.0000
  Ti  Ti12      1.0  0.0024999998339169417  0.009690351394858533  0.9995067049777702  1.0000
  Ga  Ga1       1.0  0.009999998412984112  0.008378358492155848  0.9996451558726667  1.0000
  Ga  Ga2       1.0  2.9999998862656674e-10  0.0050486013919517955  0.9993646150542764  1.0000
  Ga  Ga3       1.0  2.9999998862656674e-10  0.0017152683337099096  0.9990822653494564  1.0000
  Ga  Ga4       1.0  0.009999998412984112  0.006281932356766226  0.9996437004953797  1.0000
  Ga  Ga5       1.0  2.9999998862656674e-10  0.0029340275291492657  0.9993656560994597  1.0000
  Ga  Ga6       1.0  2.9999998862656674e-10  0.009600694476446134  0.9990833063268462  1.0000
  Ga  Ga7       1.0  2.9999998862656674e-10  0.005570697081167046  0.9990991346565946  1.0000
  Ga  Ga8       1.0  1.0999999766294884e-09  0.002301022030159109  0.9996571086938498  1.0000
  Ga  Ga9       1.0  0.009999999335667767  0.008921871989133337  0.9993804905696296  1.0000
  Ga  Ga10      1.0  2.9999998862656674e-10  0.0076852709439695745  0.9990980936114113  1.0000
  Ga  Ga11      1.0  1.199999954506267e-09  0.004321771477586426  0.9996554315678943  1.0000
  Ga  Ga12      1.0  2.9999998862656674e-10  0.0010186043428448302  0.9993804433693637  1.0000
  Ga  Ga13      1.0  0.002500000064587856  0.006976315973383637  0.9989495251255155  1.0000
  Ga  Ga14      1.0  0.0025000012179424267  0.003587674994938022  0.9995440685755284  1.0000
  Ga  Ga15      1.0  0.002500000064587856  0.0003096492684072557  0.9992318748878661  1.0000
  Ga  Ga16      1.0  2.9999998862656674e-10  0.006976315973383637  0.9993730496990488  1.0000
  Ga  Ga17      1.0  2.9999998862656674e-10  0.003642982499735203  0.9990907000118222  1.0000
  Ga  Ga18      1.0  2.9999998862656674e-10  0.0003564488663030219  0.9996431118202254  1.0000
  Ti  Ti13      1.0  0.007499999040408998  0.007577190468196103  0.9995261917184739  1.0000
  Ti  Ti14      1.0  0.007499999963092654  0.004233026238079006  0.9992478458991434  1.0000
  Ti  Ti15      1.0  0.007499999963092654  0.0008996929721338463  0.9989654962031201  1.0000
  Ti  Ti16      1.0  0.007499999963092654  0.008876157329290462  0.9989440312620891  1.0000
  Ti  Ti17      1.0  0.007499999963092654  0.005578553249811168  0.9995066308567041  1.0000
  Ti  Ti18      1.0  0.007499999963092654  0.002209490243524745  0.9992263810405672  1.0000
  Ti  Ti19      1.0  0.007499999963092654  0.005076475171352211  0.9989550184024921  1.0000
  Ti  Ti20      1.0  0.007500000424434482  0.0017552807078623294  0.999516026783234  1.0000
  Ti  Ti21      1.0  0.007499999963092654  0.008409808091125246  0.9992373681131766  1.0000
  Ti  Ti22      1.0  0.007499999963092654  0.006386272511977533  0.9992159037999986  1.0000
  Ti  Ti23      1.0  0.007499999963092654  0.003052939038329099  0.9989335538312762  1.0000
  Ti  Ti24      1.0  0.007499999501750826  0.009690351394858533  0.9995067049777702  1.0000
  Ga  Ga19      1.0  0.004999999206492056  0.008378358492155848  0.9996451558726667  1.0000
  Ga  Ga20      1.0  0.005000000129175712  0.0050486013919517955  0.9993646150542764  1.0000
  Ga  Ga21      1.0  0.005000000129175712  0.0017152683337099096  0.9990822653494564  1.0000
  Ga  Ga22      1.0  0.004999998745150227  0.006281932356766226  0.9996437004953797  1.0000
  Ga  Ga23      1.0  0.005000000129175712  0.0029340275291492657  0.9993656560994597  1.0000
  Ga  Ga24      1.0  0.005000000129175712  0.009600694476446134  0.9990833063268462  1.0000
  Ga  Ga25      1.0  0.005000000129175712  0.005570697081167046  0.9990991346565946  1.0000
  Ga  Ga26      1.0  0.00500000059051754  0.002301022030159109  0.9996571086938498  1.0000
  Ga  Ga27      1.0  0.004999999206492056  0.008921871989133337  0.9993804905696296  1.0000
  Ga  Ga28      1.0  0.005000000129175712  0.0076852709439695745  0.9990980936114113  1.0000
  Ga  Ga29      1.0  0.005000001051859369  0.004321771477586426  0.9996554315678943  1.0000
  Ga  Ga30      1.0  0.005000000129175712  0.0010186043428448302  0.9993804433693637  1.0000
  Ga  Ga31      1.0  0.007499999963092654  0.006976315973383637  0.9989495251255155  1.0000
  Ga  Ga32      1.0  0.0075000008857763105  0.003587674994938022  0.9995440685755284  1.0000
  Ga  Ga33      1.0  0.007499999963092654  0.0003096492684072557  0.9992318748878661  1.0000
  Ga  Ga34      1.0  0.005000000129175712  0.006976315973383637  0.9993730496990488  1.0000
  Ga  Ga35      1.0  0.005000000129175712  0.003642982499735203  0.9990907000118222  1.0000
  Ga  Ga36      1.0  0.005000000129175712  0.0003564488663030219  0.9996431118202254  1.0000
