data_image0
_chemical_formula_structural       HCo4Re12Co4Re12
_chemical_formula_sum              "H1 Co8 Re24"
_cell_length_a       5.429815292358398
_cell_length_b       11.703617236611363
_cell_length_c       104.91071319580078
_cell_angle_alpha    68.10774315207301
_cell_angle_beta     90.0
_cell_angle_gamma    62.358141637999324

_space_group_name_H-M_alt    "P 1"
_space_group_IT_number       1

loop_
  _space_group_symop_operation_xyz
  'x, y, z'

loop_
  _atom_site_type_symbol
  _atom_site_label
  _atom_site_symmetry_multiplicity
  _atom_site_fract_x
  _atom_site_fract_y
  _atom_site_fract_z
  _atom_site_occupancy
  H   H1        1.0  0.006576080134645946  0.004686475741944048  0.9998050625769467  1.0000
  Co  Co1       1.0  0.006639200256505539  0.003357782745735233  0.9991374653713279  1.0000
  Co  Co2       1.0  0.006639199176286613  0.008357783331976211  0.999345443679675  1.0000
  Co  Co3       1.0  0.003305866728428945  0.0016911160817092916  0.9994147701178725  1.0000
  Co  Co4       1.0  0.003305866928453656  0.006691116073787116  0.999206791421856  1.0000
  Re  Re1       1.0  0.0032996798173770586  0.004192662783465575  0.9993107164334964  1.0000
  Re  Re2       1.0  0.003299679423238616  0.009192663369706554  0.9991027377127654  1.0000
  Re  Re3       1.0  0.00830896053002061  0.001688022472220163  0.9994148987988462  1.0000
  Re  Re4       1.0  0.008308960043964836  0.006688022464297987  0.9992069201028297  1.0000
  Re  Re5       1.0  0.008308959934092851  0.004192662783465575  0.9993107164334964  1.0000
  Re  Re6       1.0  0.008308960226034891  0.009192663369706554  0.9991027377127654  1.0000
  Re  Re7       1.0  0.006645387167557425  0.000856236043978949  0.9992415190557038  1.0000
  Re  Re8       1.0  0.006645386681501653  0.005856236036056773  0.9990335403596874  1.0000
  Re  Re9       1.0  0.0016361064549138757  0.0033608763552243613  0.9991373366903541  1.0000
  Re  Re10      1.0  0.0016361060607754324  0.00836087694146534  0.9993453149987013  1.0000
  Re  Re11      1.0  0.0016361065362812705  0.000856236043978949  0.9992415190557038  1.0000
  Re  Re12      1.0  0.0016361065647858611  0.005856236036056773  0.9990335403596874  1.0000
  Co  Co5       1.0  0.006653865392199883  0.003342439076443187  0.9995550077317341  1.0000
  Co  Co6       1.0  0.006432798486473141  0.008563581643125595  0.9997442346622313  1.0000
  Co  Co7       1.0  0.00317958193713815  0.0018170012311187307  0.9998128410813425  1.0000
  Co  Co8       1.0  0.0033134011812066175  0.006683938582885322  0.9996262252149761  1.0000
  Re  Re13      1.0  0.003224389301878259  0.004239222992657651  0.9997152492793996  1.0000
  Re  Re14      1.0  0.003299679423238616  0.009192663369706554  0.99951869530999  1.0000
  Re  Re15      1.0  0.008174198162456804  0.0018232458858685528  0.9998063169480262  1.0000
  Re  Re16      1.0  0.008370236533926347  0.0066266458065859565  0.9996220138750131  1.0000
  Re  Re17      1.0  0.008288421845515415  0.004239350143572634  0.9997152099016788  1.0000
  Re  Re18      1.0  0.008308960226034891  0.009192663369706554  0.99951869530999  1.0000
  Re  Re19      1.0  0.006725686534470743  0.0008073372086122488  0.999663399598292  1.0000
  Re  Re20      1.0  0.006645386681501653  0.005856236036056773  0.9994494973887657  1.0000
  Re  Re21      1.0  0.0016413156748268437  0.0033553906448767377  0.9995546491040815  1.0000
  Re  Re22      1.0  0.0016297625373792003  0.008366899379195521  0.999740614269231  1.0000
  Re  Re23      1.0  0.0016547027346780845  0.0008081428443356421  0.9996633496110328  1.0000
  Re  Re24      1.0  0.0016361065647858611  0.005856236036056773  0.9994494973887657  1.0000
