data_image0
_chemical_formula_structural       COGe12Re6
_chemical_formula_sum              "C1 O1 Ge12 Re6"
_cell_length_a       7.006610227720239
_cell_length_b       4.886725948214771
_cell_length_c       100.0099868774414
_cell_angle_alpha    91.23693815313689
_cell_angle_beta     93.22056087001224
_cell_angle_gamma    77.66462355985176

_space_group_name_H-M_alt    "P 1"
_space_group_IT_number       1

loop_
  _space_group_symop_operation_xyz
  'x, y, z'

loop_
  _atom_site_type_symbol
  _atom_site_label
  _atom_site_symmetry_multiplicity
  _atom_site_fract_x
  _atom_site_fract_y
  _atom_site_fract_z
  _atom_site_occupancy
  C   C1        1.0  6.689575288321353e-05  0.008900207536264358  6.872775841553198e-05  1.0000
  O   O1        1.0  6.689575288321353e-05  0.008900207536264358  0.00018871542253507445  1.0000
  Ge  Ge1       1.0  0.006433937467936148  0.002102017006093326  0.9999108397665377  1.0000
  Ge  Ge2       1.0  0.006913256963288607  0.006880535754871899  0.9998160102355786  1.0000
  Ge  Ge3       1.0  0.0006484894669634365  0.00362422660908249  0.9999627054436487  1.0000
  Ge  Ge4       1.0  0.0034546942517648463  0.007718843115013852  2.173911569377354e-05  1.0000
  Ge  Ge5       1.0  0.005422922213530015  0.00039012910984482233  0.9995972031386408  1.0000
  Ge  Ge6       1.0  0.005886069715866656  0.004953570331360638  0.9995084780342182  1.0000
  Ge  Ge7       1.0  0.009914296644821739  0.0016098708282126643  0.9996729070830807  1.0000
  Ge  Ge8       1.0  0.002394694857289435  0.005733828372613825  0.999732844361943  1.0000
  Ge  Ge9       1.0  0.0044229220958085  0.008390129653545077  0.9992971332915266  1.0000
  Ge  Ge10      1.0  0.004886069598145142  0.0029535697846770977  0.9992084080570717  1.0000
  Ge  Ge11      1.0  0.008914296527100225  0.009609871181286382  0.9993728369377719  1.0000
  Ge  Ge12      1.0  0.0013946947395679205  0.0037338285884364352  0.9994327740876073  1.0000
  Re  Re1       1.0  0.009933104836746247  0.008864551743512368  0.9998952577075506  1.0000
  Re  Re2       1.0  0.0034187960025157177  0.0005613826967777655  0.9998033918545829  1.0000
  Re  Re3       1.0  0.008908293274882073  0.006868678357657848  0.9995978401399487  1.0000
  Re  Re4       1.0  0.002400698382011092  0.008475021113207271  0.9995078411607511  1.0000
  Re  Re5       1.0  0.00790829315716056  0.004868678192227382  0.9992977701632044  1.0000
  Re  Re6       1.0  0.0014006984005413307  0.006475021668765412  0.9992077711853036  1.0000
