data_image0
_chemical_formula_structural       COFe4Sb8Fe4Sb8Fe4Sb8
_chemical_formula_sum              "C1 O1 Fe12 Sb24"
_cell_length_a       13.476843427967058
_cell_length_b       6.6592032271949675
_cell_length_c       106.12384033203125
_cell_angle_alpha    60.45217145615767
_cell_angle_beta     75.89638690501607
_cell_angle_gamma    83.09815035124895

_space_group_name_H-M_alt    "P 1"
_space_group_IT_number       1

loop_
  _space_group_symop_operation_xyz
  'x, y, z'

loop_
  _atom_site_type_symbol
  _atom_site_label
  _atom_site_symmetry_multiplicity
  _atom_site_fract_x
  _atom_site_fract_y
  _atom_site_fract_z
  _atom_site_occupancy
  C   C1        1.0  0.0025790769884099286  0.004541955562689608  0.9997796407632159  1.0000
  O   O1        1.0  0.0025790769884099286  0.004541955562689608  0.9998927164329349  1.0000
  Fe  Fe1       1.0  0.0003620388486355027  0.0009823850182888228  0.9993555149288901  1.0000
  Fe  Fe2       1.0  0.005362039035318897  0.0009823850182888228  0.9995102394993204  1.0000
  Fe  Fe3       1.0  0.0028620388529106947  0.0059823849829209385  0.9995876012325112  1.0000
  Fe  Fe4       1.0  0.0078620392177271  0.0059823849829209385  0.999432877004472  1.0000
  Sb  Sb1       1.0  0.0021379612268928937  0.002947154974484914  0.9995492085835371  1.0000
  Sb  Sb2       1.0  0.0071379613066964815  0.002947154974484914  0.9993944843643175  1.0000
  Sb  Sb3       1.0  0.003586116763941313  0.009017614991356964  0.999316546203012  1.0000
  Sb  Sb4       1.0  0.008586116558732084  0.009017614991356964  0.9994712702239177  1.0000
  Sb  Sb5       1.0  0.00463796112428828  0.004017615107106402  0.9995934450920476  1.0000
  Sb  Sb6       1.0  0.009637961489104684  0.004017615107106402  0.9994387208640083  1.0000
  Sb  Sb7       1.0  0.0010861166527863144  0.007947155180261694  0.9995817573608204  1.0000
  Sb  Sb8       1.0  0.006086116946349515  0.007947155180261694  0.999427033134986  1.0000
  Fe  Fe5       1.0  0.0003620388486355027  0.0009823850182888228  0.9990460666975846  1.0000
  Fe  Fe6       1.0  0.005362039035318897  0.0009823850182888228  0.9992007907063631  1.0000
  Fe  Fe7       1.0  0.0028620388529106947  0.0059823849829209385  0.9992781530012057  1.0000
  Fe  Fe8       1.0  0.0078620392177271  0.0059823849829209385  0.9991234287731665  1.0000
  Sb  Sb9       1.0  0.0021379612268928937  0.002947154974484914  0.9992397597905798  1.0000
  Sb  Sb10      1.0  0.0071379613066964815  0.002947154974484914  0.9990850355713602  1.0000
  Sb  Sb11      1.0  0.003586116763941313  0.009017614991356964  0.9990070974100548  1.0000
  Sb  Sb12      1.0  0.008586116558732084  0.009017614991356964  0.9991618219926122  1.0000
  Sb  Sb13      1.0  0.00463796112428828  0.004017615107106402  0.9992839968607421  1.0000
  Sb  Sb14      1.0  0.009637961489104684  0.004017615107106402  0.9991292726327028  1.0000
  Sb  Sb15      1.0  0.0010861166527863144  0.007947155180261694  0.9992723091295149  1.0000
  Sb  Sb16      1.0  0.006086116946349515  0.007947155180261694  0.9991175849036806  1.0000
  Fe  Fe9       1.0  0.0003620388486355027  0.0009823850182888228  0.9987366181854531  1.0000
  Fe  Fe10      1.0  0.005362039035318897  0.0009823850182888228  0.9988913424750576  1.0000
  Fe  Fe11      1.0  0.0028620388529106947  0.0059823849829209385  0.9989687047699003  1.0000
  Fe  Fe12      1.0  0.0078620392177271  0.0059823849829209385  0.998813980541861  1.0000
  Sb  Sb17      1.0  0.0021379612268928937  0.002947154974484914  0.9989303115592743  1.0000
  Sb  Sb18      1.0  0.0071379613066964815  0.002947154974484914  0.9987755873400547  1.0000
  Sb  Sb19      1.0  0.003586116763941313  0.009017614991356964  0.9986976491787493  1.0000
  Sb  Sb20      1.0  0.008586116558732084  0.009017614991356964  0.9988523731996548  1.0000
  Sb  Sb21      1.0  0.00463796112428828  0.004017615107106402  0.9989745486294366  1.0000
  Sb  Sb22      1.0  0.009637961489104684  0.004017615107106402  0.9988198244013974  1.0000
  Sb  Sb23      1.0  0.0010861166527863144  0.007947155180261694  0.9989628608982094  1.0000
  Sb  Sb24      1.0  0.006086116946349515  0.007947155180261694  0.9988081366723751  1.0000
