data_image0
_chemical_formula_structural       COAg6Ca10
_chemical_formula_sum              "C1 O1 Ag6 Ca10"
_cell_length_a       9.50750076244994
_cell_length_b       8.1696195602417
_cell_length_c       98.7883529663086
_cell_angle_alpha    90.0
_cell_angle_beta     87.08304824285273
_cell_angle_gamma    115.44476354452564

_space_group_name_H-M_alt    "P 1"
_space_group_IT_number       1

loop_
  _space_group_symop_operation_xyz
  'x, y, z'

loop_
  _atom_site_type_symbol
  _atom_site_label
  _atom_site_symmetry_multiplicity
  _atom_site_fract_x
  _atom_site_fract_y
  _atom_site_fract_z
  _atom_site_occupancy
  C   C1        1.0  0.009244209524995762  0.009508844389230815  0.00011322360645527498  1.0000
  O   O1        1.0  0.009244209524995762  0.009508844389230815  0.00023469505884544527  1.0000
  Ag  Ag1       1.0  0.0025841781462964415  0.006522554488470547  0.9999315894260602  1.0000
  Ag  Ag2       1.0  0.005213584110971691  0.0026868037572222864  0.999607362045067  1.0000
  Ag  Ag3       1.0  0.008317126604249398  0.000491155429588098  0.9998771844937344  1.0000
  Ag  Ag4       1.0  0.0021009578955182933  0.007405238715554901  0.9993323581077598  1.0000
  Ag  Ag5       1.0  0.0008262099157214161  0.004218368669916681  0.9995180978575731  1.0000
  Ag  Ag6       1.0  0.009600957599985492  0.008605742512048719  0.9996966259343413  1.0000
  Ca  Ca1       1.0  0.001463584041434561  0.0008118037224537212  0.9994252281328405  1.0000
  Ca  Ca2       1.0  0.009020219130409823  0.004505309765165549  0.9997933208086005  1.0000
  Ca  Ca3       1.0  0.005105957583852878  0.0008740245562202252  0.9999168513805284  1.0000
  Ca  Ca4       1.0  0.005976713256497216  0.006457217117205139  0.9997997379264085  1.0000
  Ca  Ca5       1.0  0.007610585905669379  0.000553732792444181  0.9995617142269839  1.0000
  Ca  Ca6       1.0  0.0020332267754470295  0.0027339416103005698  0.9997608862577542  1.0000
  Ca  Ca7       1.0  0.0003990419969164594  0.008640407787025791  0.9999980456685484  1.0000
  Ca  Ca8       1.0  0.004485010572842425  0.005654088935783312  0.9994099077113516  1.0000
  Ca  Ca9       1.0  0.002816582316274003  0.008156731216623189  0.9996530098631501  1.0000
  Ca  Ca10      1.0  0.008442156971113944  0.0059695184346048105  0.9994405480652327  1.0000
