data_image0
_chemical_formula_structural       COAl3As3Al3As3Al3As3Al3As3
_chemical_formula_sum              "C1 O1 Al12 As12"
_cell_length_a       8.165152483927402
_cell_length_b       8.165152549743652
_cell_length_c       100.00068664550781
_cell_angle_alpha    90.0
_cell_angle_beta     90.0
_cell_angle_gamma    120.00000026664343

_space_group_name_H-M_alt    "P 1"
_space_group_IT_number       1

loop_
  _space_group_symop_operation_xyz
  'x, y, z'

loop_
  _atom_site_type_symbol
  _atom_site_label
  _atom_site_symmetry_multiplicity
  _atom_site_fract_x
  _atom_site_fract_y
  _atom_site_fract_z
  _atom_site_occupancy
  C   C1        1.0  0.002500000916673  0.0033333332137625606  0.00013921224848919953  1.0000
  O   O1        1.0  0.002500000916673  0.0033333332137625606  0.0002592110716631737  1.0000
  Al  Al1       1.0  0.0008333349779008895  0.009999999167644007  0.0  1.0000
  Al  Al2       1.0  0.0024999998630258736  0.0033333338275454575  0.9993382851022218  1.0000
  Al  Al3       1.0  0.004166666526180383  0.001666667327932468  0.999671623875435  1.0000
  As  As1       1.0  0.0024999998630258736  0.0033333338275454575  0.9995882891076263  1.0000
  As  As2       1.0  0.004166666789592165  0.0016666670889412595  0.9999320160050247  1.0000
  As  As3       1.0  0.000833333199871364  6.077476354864647e-10  0.9992549506324343  1.0000
  Al  Al4       1.0  0.0008333349779008895  0.0049999992771422265  0.0  1.0000
  Al  Al5       1.0  0.0024999998630258736  0.00833333394616853  0.9993382851022218  1.0000
  Al  Al6       1.0  0.004166666526180383  0.006666667332494895  0.999671623875435  1.0000
  As  As4       1.0  0.0024999998630258736  0.00833333394616853  0.9995882891076263  1.0000
  As  As5       1.0  0.004166666789592165  0.006666667007958201  0.9999320160050247  1.0000
  As  As6       1.0  0.000833333199871364  0.0050000006693403844  0.9992549506324343  1.0000
  Al  Al7       1.0  0.005833335033217364  0.009999999250051355  0.0  1.0000
  Al  Al8       1.0  0.007499999852489403  0.0033333338770263317  0.9993382851022218  1.0000
  Al  Al9       1.0  0.009166666779055694  0.0016666673950585873  0.999671623875435  1.0000
  As  As7       1.0  0.007499999852489403  0.0033333338770263317  0.9995882891076263  1.0000
  As  As8       1.0  0.009166666779055694  0.0016666671669372953  0.9999320160050247  1.0000
  As  As9       1.0  0.005833333452746675  7.319040779670011e-10  0.9992549506324343  1.0000
  Al  Al10      1.0  0.005833335033217364  0.004999999359549575  0.0  1.0000
  Al  Al11      1.0  0.007499999852489403  0.008333333995649403  0.9993382851022218  1.0000
  Al  Al12      1.0  0.009166666779055694  0.006666667513681659  0.999671623875435  1.0000
  As  As10      1.0  0.007499999852489403  0.008333333995649403  0.9995882891076263  1.0000
  As  As11      1.0  0.009166666779055694  0.0066666670574390755  0.9999320160050247  1.0000
  As  As12      1.0  0.005833333452746675  0.005000000622405858  0.9992549506324343  1.0000
