data_image0
_chemical_formula_structural       COAs12Si12
_chemical_formula_sum              "C1 O1 As12 Si12"
_cell_length_a       9.118569151166257
_cell_length_b       10.297406033407045
_cell_length_c       99.30355072021484
_cell_angle_alpha    83.35034591404963
_cell_angle_beta     84.03854417230997
_cell_angle_gamma    68.15296834631599

_space_group_name_H-M_alt    "P 1"
_space_group_IT_number       1

loop_
  _space_group_symop_operation_xyz
  'x, y, z'

loop_
  _atom_site_type_symbol
  _atom_site_label
  _atom_site_symmetry_multiplicity
  _atom_site_fract_x
  _atom_site_fract_y
  _atom_site_fract_z
  _atom_site_occupancy
  C   C1        1.0  0.0052447068440046535  0.008658075549782984  1.8886601687562243e-05  1.0000
  O   O1        1.0  0.0052447068440046535  0.008658075549782984  0.00013972844703612206  1.0000
  As  As1       1.0  0.007575512273821485  0.009353580600960622  0.9997353720791371  1.0000
  As  As2       1.0  0.0021761928330336204  0.0005414605204461976  0.9996092767912994  1.0000
  As  As3       1.0  0.008320920074041801  0.003204868800388242  0.9997416697768915  1.0000
  As  As4       1.0  0.0015061360770614078  0.0065435550643346396  0.9996150904118339  1.0000
  As  As5       1.0  0.005005846682045847  0.006745631442012513  0.9998692396094473  1.0000
  As  As6       1.0  0.0036669521743247554  0.002994858536937284  0.9998276711875808  1.0000
  As  As7       1.0  0.00885326451300501  0.009458539677074683  0.9993521031476751  1.0000
  As  As8       1.0  0.003513469764397216  0.0005480388947261546  0.9992470547338667  1.0000
  As  As9       1.0  0.009483626395008628  0.0033836868009528716  0.9993645038694786  1.0000
  As  As10      1.0  0.0028831079627887365  0.006622891575282738  0.9992346540136448  1.0000
  As  As11      1.0  0.006406036170170828  0.006861942688536396  0.9995006867412488  1.0000
  As  As12      1.0  0.004710697400723672  0.0031446358832644427  0.9994673348131657  1.0000
  Si  Si1       1.0  0.007349645408226152  0.00565463521946912  0.9997315611827489  1.0000
  Si  Si2       1.0  0.0023681336841637453  0.004031529867923317  0.9996245794535609  1.0000
  Si  Si3       1.0  0.008985242699390767  0.006947042506781514  0.9997198021578584  1.0000
  Si  Si4       1.0  0.000527241406771436  0.0030068191107743537  0.9995921125766468  1.0000
  Si  Si5       1.0  0.005379888175418949  0.00881005085371826  0.9998429029999472  1.0000
  Si  Si6       1.0  0.0033729686556568904  0.000979884370978866  0.99979239680226  1.0000
  Si  Si7       1.0  0.008749783504820838  0.005905337326802427  0.9993500672848921  1.0000
  Si  Si8       1.0  0.003616950692186247  0.0041012414405636405  0.9992490905950682  1.0000
  Si  Si9       1.0  0.0005163734295005551  0.007010590254535937  0.9993848208904541  1.0000
  Si  Si10      1.0  0.0018503605803137121  0.0029959887083953595  0.9992143369769385  1.0000
  Si  Si11      1.0  0.006777787624416515  0.009085113348229918  0.9995080000379132  1.0000
  Si  Si12      1.0  0.004338946196448011  0.0009214656147013786  0.9994600212093074  1.0000
