data_image0
_chemical_formula_structural       HIn32Ir16
_chemical_formula_sum              "H1 In32 Ir16"
_cell_length_a       5.744550495504216
_cell_length_b       18.527103424072266
_cell_length_c       103.81147003173828
_cell_angle_alpha    90.0
_cell_angle_beta     91.99969127371969
_cell_angle_gamma    90.0

_space_group_name_H-M_alt    "P 1"
_space_group_IT_number       1

loop_
  _space_group_symop_operation_xyz
  'x, y, z'

loop_
  _atom_site_type_symbol
  _atom_site_label
  _atom_site_symmetry_multiplicity
  _atom_site_fract_x
  _atom_site_fract_y
  _atom_site_fract_z
  _atom_site_occupancy
  H   H1        1.0  0.007366608020492598  0.005145640548273965  0.00013280432608352808  1.0000
  In  In1       1.0  0.009156597966595787  0.007602655952959674  0.999930453845461  1.0000
  In  In2       1.0  0.004282636844002907  0.007527233672478555  0.9998019521749573  1.0000
  In  In3       1.0  0.007261333999011118  0.005145640548273965  1.4021009083692369e-05  1.0000
  In  In4       1.0  0.006434859152005019  0.005034471605505636  0.9996992987922371  1.0000
  In  In5       1.0  0.0016842865240884464  0.004214578534618385  0.999856539359705  1.0000
  In  In6       1.0  0.0019973483882784675  0.005937925967989212  0.999866526817393  1.0000
  In  In7       1.0  0.008985761118547982  0.00839105383769539  0.9996267830590999  1.0000
  In  In8       1.0  0.008985761118547982  0.006677889518088054  0.9996267830590999  1.0000
  In  In9       1.0  0.001434859645158635  0.002534471734192011  0.9996992987659166  1.0000
  In  In10      1.0  0.0022582599064802167  0.0024231700835987877  1.411724691430537e-05  1.0000
  In  In11      1.0  0.009279425661255667  4.205530135592877e-05  0.9998016227482712  1.0000
  In  In12      1.0  0.004151822007425502  0.009965528426665959  0.9999303802900325  1.0000
  In  In13      1.0  0.003985761611701598  0.009177889791546602  0.9996267830327794  1.0000
  In  In14      1.0  0.003985761611701598  0.0008910537210733618  0.9996267830327794  1.0000
  In  In15      1.0  0.006684836773213041  0.0033537103142155826  0.999856499109767  1.0000
  In  In16      1.0  0.006996489742944664  0.0016306827871317331  0.9998666331292305  1.0000
  In  In17      1.0  0.0035777169011073965  0.0075344714768192595  0.9994666555886583  1.0000
  In  In18      1.0  0.008679520509750155  0.0075344714768192595  0.9993216241217575  1.0000
  In  In19      1.0  0.0015366635847334257  0.005034471605505636  0.9995542678465446  1.0000
  In  In20      1.0  0.0007205739202126453  0.005034471605505636  0.99923401238367  1.0000
  In  In21      1.0  0.006128618543207192  0.00417788964677443  0.9993941398548947  1.0000
  In  In22      1.0  0.006128618543207192  0.005891053966381765  0.9993941398548947  1.0000
  In  In23      1.0  0.003271475967866401  0.00839105383769539  0.9991614966506895  1.0000
  In  In24      1.0  0.003271475967866401  0.006677889518088054  0.9991614966506895  1.0000
  In  In25      1.0  0.005720573508169821  0.002534471734192011  0.9992340124101472  1.0000
  In  In26      1.0  0.006536663578244562  0.002534471734192011  0.9995542678738046  1.0000
  In  In27      1.0  0.003679520678460603  3.447159897078052e-05  0.9993216240948106  1.0000
  In  In28      1.0  0.008577716732396948  3.447159897078052e-05  0.9994666556156053  1.0000
  In  In29      1.0  0.008271475474712785  0.009177889791546602  0.99916149667701  1.0000
  In  In30      1.0  0.008271475474712785  0.0008910537210733618  0.99916149667701  1.0000
  In  In31      1.0  0.0011286187119176395  0.003391053692923217  0.9993941398279478  1.0000
  In  In32      1.0  0.0011286187119176395  0.0016778895743883434  0.9993941398279478  1.0000
  Ir  Ir1       1.0  0.008985761118547982  0.0038436923356350693  0.9996267830590999  1.0000
  Ir  Ir2       1.0  0.007100874141258631  0.006301413906807179  0.9998523732576394  1.0000
  Ir  Ir3       1.0  0.001675335137074695  0.008737072198873366  0.9998387678250226  1.0000
  Ir  Ir4       1.0  0.003985761611701598  0.006343692206948693  0.9996267830327794  1.0000
  Ir  Ir5       1.0  0.006677388855841251  0.008831228802780202  0.9998388573680493  1.0000
  Ir  Ir6       1.0  0.008985761118547982  0.0012252509316764912  0.9996267830590999  1.0000
  Ir  Ir7       1.0  0.003985761611701598  0.0037252510040625773  0.9996267830327794  1.0000
  Ir  Ir8       1.0  0.0021030730613207345  0.0012680097950020887  0.9998524251317723  1.0000
  Ir  Ir9       1.0  0.003271475967866401  0.0038436923356350693  0.9991614966506895  1.0000
  Ir  Ir10      1.0  0.0011286187119176395  0.006225250875376202  0.9993941398279478  1.0000
  Ir  Ir11      1.0  0.006128618543207192  0.008725250746689827  0.9993941398548947  1.0000
  Ir  Ir12      1.0  0.008271475474712785  0.006343692206948693  0.99916149667701  1.0000
  Ir  Ir13      1.0  0.0011286187119176395  0.008843692078262319  0.9993941398279478  1.0000
  Ir  Ir14      1.0  0.003271475967866401  0.0012252509316764912  0.9991614966506895  1.0000
  Ir  Ir15      1.0  0.008271475474712785  0.0037252510040625773  0.99916149667701  1.0000
  Ir  Ir16      1.0  0.006128618543207192  0.001343692363785214  0.9993941398548947  1.0000
