data_image0
_chemical_formula_structural       COFe3Cu3Pt6Fe3Cu3Pt6
_chemical_formula_sum              "C1 O1 Fe6 Cu6 Pt12"
_cell_length_a       5.562255382537842
_cell_length_b       5.304788933124552
_cell_length_c       109.6227798461914
_cell_angle_alpha    94.58095146032124
_cell_angle_beta     90.0
_cell_angle_gamma    58.38106460159271

_space_group_name_H-M_alt    "P 1"
_space_group_IT_number       1

loop_
  _space_group_symop_operation_xyz
  'x, y, z'

loop_
  _atom_site_type_symbol
  _atom_site_label
  _atom_site_symmetry_multiplicity
  _atom_site_fract_x
  _atom_site_fract_y
  _atom_site_fract_z
  _atom_site_occupancy
  C   C1        1.0  0.002274575579627485  0.006278290386511194  0.00015234804595149135  1.0000
  O   O1        1.0  0.002274575579627485  0.006278290386511194  0.00026181456682910424  1.0000
  Fe  Fe1       1.0  0.008401593728716362  0.004024086920090605  0.9991915252135496  1.0000
  Fe  Fe2       1.0  0.001734926784525174  0.007357420540575157  0.9989907215544359  1.0000
  Fe  Fe3       1.0  0.005068260353239674  0.000690753403146156  0.999392328601201  1.0000
  Cu  Cu1       1.0  0.006734926918474086  0.007357420540575157  0.9989907215544359  1.0000
  Cu  Cu2       1.0  6.826021929076174e-05  0.000690753403146156  0.999392328601201  1.0000
  Cu  Cu3       1.0  0.0034015935947674498  0.004024086920090605  0.9991915252135496  1.0000
  Pt  Pt1       1.0  0.003401593111506211  0.009024087350817432  0.9991915251540453  1.0000
  Pt  Pt2       1.0  0.006734926731990764  0.002357420109848329  0.9989907216139403  1.0000
  Pt  Pt3       1.0  6.826012267185537e-05  0.005690753730332881  0.9993923290850215  1.0000
  Pt  Pt4       1.0  0.008401593245455124  0.009024087350817432  0.9991915251540453  1.0000
  Pt  Pt5       1.0  0.0017349269329141315  0.002357420109848329  0.9989907216139403  1.0000
  Pt  Pt6       1.0  0.005068259921748487  0.005690753730332881  0.9993923290850215  1.0000
  Fe  Fe4       1.0  0.008265391035928516  0.00429553055247435  0.9998003095996315  1.0000
  Fe  Fe5       1.0  0.001734926784525174  0.007357420540575157  0.9995931326846309  1.0000
  Fe  Fe6       1.0  0.004890889181618231  0.0010466899009442274  0.9999846996101275  1.0000
  Cu  Cu4       1.0  0.006734926918474086  0.007357420540575157  0.9995931326846309  1.0000
  Cu  Cu5       1.0  0.00991589817444408  0.0009959227390247624  3.8491355532117005e-06  1.0000
  Cu  Cu6       1.0  0.003260044161383475  0.00430775573948136  0.9997915137054577  1.0000
  Pt  Pt7       1.0  0.003249011454853093  0.00930924673352678  0.9997937122497031  1.0000
  Pt  Pt8       1.0  0.006734926731990764  0.002357420109848329  0.9995931327441352  1.0000
  Pt  Pt9       1.0  0.009931740090521704  0.005917024058386095  0.9999936287704668  1.0000
  Pt  Pt10      1.0  0.008268666476457765  0.00930892948665208  0.9997936642632287  1.0000
  Pt  Pt11      1.0  0.0017349269329141315  0.002357420109848329  0.9995931327441352  1.0000
  Pt  Pt12      1.0  0.004978619268138263  0.0059171408516219505  0.9999936667388845  1.0000
