data_image0
_chemical_formula_structural       COV18Co6V18Co6
_chemical_formula_sum              "C1 O1 V36 Co12"
_cell_length_a       4.655666828155518
_cell_length_b       10.41038734222065
_cell_length_c       109.504638671875
_cell_angle_alpha    71.56505159202807
_cell_angle_beta     90.0
_cell_angle_gamma    90.0

_space_group_name_H-M_alt    "P 1"
_space_group_IT_number       1

loop_
  _space_group_symop_operation_xyz
  'x, y, z'

loop_
  _atom_site_type_symbol
  _atom_site_label
  _atom_site_symmetry_multiplicity
  _atom_site_fract_x
  _atom_site_fract_y
  _atom_site_fract_z
  _atom_site_occupancy
  C   C1        1.0  2.4499999279121907e-09  0.005260187680965593  0.9998871288181261  1.0000
  O   O1        1.0  2.4499999279121907e-09  0.005260187680965593  0.9999967134390539  1.0000
  V   V1        1.0  7.49999974038964e-10  0.007916666113439627  0.9987941673148233  1.0000
  V   V2        1.0  7.49999974038964e-10  0.004583333132159864  0.9991950092361284  1.0000
  V   V3        1.0  7.49999974038964e-10  0.001249999867979911  0.9989945882463325  1.0000
  V   V4        1.0  7.49999974038964e-10  0.006249999622799745  0.9986939570878286  1.0000
  V   V5        1.0  7.49999974038964e-10  0.002916666641519983  0.9990947990091338  1.0000
  V   V6        1.0  7.49999974038964e-10  0.009583332981279762  0.9988943780747896  1.0000
  V   V7        1.0  0.005000000608123547  0.007916666113439627  0.9989444833168805  1.0000
  V   V8        1.0  0.005000000608123547  0.004583333132159864  0.9987440623185797  1.0000
  V   V9        1.0  0.005000000608123547  0.001249999867979911  0.9991449042483898  1.0000
  V   V10       1.0  0.005000000608123547  0.009583332981279762  0.9987440620727324  1.0000
  V   V11       1.0  0.005000000608123547  0.006249999622799745  0.9991449040053773  1.0000
  V   V12       1.0  0.005000000608123547  0.002916666641519983  0.9989444830070765  1.0000
  V   V13       1.0  0.00750000051210404  0.005416666566079932  0.9989444831563086  1.0000
  V   V14       1.0  0.00750000051210404  0.0020833332075999153  0.9987440624415035  1.0000
  V   V15       1.0  0.00750000051210404  0.008749999547359694  0.9991449041546093  1.0000
  V   V16       1.0  0.0025000007041430547  0.005416666566079932  0.9989444831563086  1.0000
  V   V17       1.0  0.0025000007041430547  0.0020833332075999153  0.9987440624415035  1.0000
  V   V18       1.0  0.0025000007041430547  0.008749999547359694  0.9991449041546093  1.0000
  Co  Co1       1.0  0.005000000608123547  0.007083333433920067  0.998744062456472  1.0000
  Co  Co2       1.0  0.005000000608123547  0.0037499996982397962  0.9991449044004568  1.0000
  Co  Co3       1.0  0.005000000608123547  0.0004166666226599703  0.998944483404991  1.0000
  Co  Co4       1.0  7.49999974038964e-10  0.007083333433920067  0.9990446939162749  1.0000
  Co  Co5       1.0  7.49999974038964e-10  0.0037499996982397962  0.9988442729406538  1.0000
  Co  Co6       1.0  7.49999974038964e-10  0.0004166666226599703  0.999245114864794  1.0000
  V   V19       1.0  7.49999974038964e-10  0.007916666113439627  0.9993954302344291  1.0000
  V   V20       1.0  2.8499999395027875e-09  0.004592446667505157  0.9997845904917765  1.0000
  V   V21       1.0  0.009999998815759407  0.0012702803225551026  0.9995997614352633  1.0000
  V   V22       1.0  7.49999974038964e-10  0.006249999622799745  0.9992952200074345  1.0000
  V   V23       1.0  0.00999999641527172  0.003009481290505272  0.9996949415767824  1.0000
  V   V24       1.0  7.49999974038964e-10  0.009583332981279762  0.9994956409943955  1.0000
  V   V25       1.0  0.005000000608123547  0.007916666113439627  0.9995457462364864  1.0000
  V   V26       1.0  0.005000000608123547  0.004583333132159864  0.9993453252381856  1.0000
  V   V27       1.0  0.004999997407473298  0.0013338553508239984  0.9997520389492559  1.0000
  V   V28       1.0  0.005000000608123547  0.009583332981279762  0.9993453249923382  1.0000
  V   V29       1.0  0.0050000038087737965  0.006279579666745687  0.9997392308983996  1.0000
  V   V30       1.0  0.005000000608123547  0.002916666641519983  0.9995457459266824  1.0000
  V   V31       1.0  0.00750000051210404  0.005416666566079932  0.9995457460759145  1.0000
  V   V32       1.0  0.00750000051210404  0.0020833332075999153  0.9993453250889536  1.0000
  V   V33       1.0  0.007430495191291855  0.008791116638285114  0.9997357108711427  1.0000
  V   V34       1.0  0.0025000007041430547  0.005416666566079932  0.9995457460759145  1.0000
  V   V35       1.0  0.0025000007041430547  0.0020833332075999153  0.9993453250889536  1.0000
  V   V36       1.0  0.0025695080253616454  0.008791115883884605  0.9997357114381339  1.0000
  Co  Co7       1.0  0.005000000608123547  0.007083333433920067  0.9993453253760779  1.0000
  Co  Co8       1.0  0.0049999962072294546  0.0037678616390841744  0.9997414843125695  1.0000
  Co  Co9       1.0  0.005000000608123547  0.0004166666226599703  0.9995457463245968  1.0000
  Co  Co10      1.0  2.0499999163215934e-09  0.00703710980595129  0.9996562127549616  1.0000
  Co  Co11      1.0  7.49999974038964e-10  0.0037499996982397962  0.9994455358602597  1.0000
  Co  Co12      1.0  0.009999986813320974  0.00042549211846103745  0.9998238822323287  1.0000
