data_image0
_chemical_formula_structural       COCa16Sb8Ca16Sb8
_chemical_formula_sum              "C1 O1 Ca32 Sb16"
_cell_length_a       34.257347102064664
_cell_length_b       4.844155788421631
_cell_length_c       103.90909576416016
_cell_angle_alpha    90.0
_cell_angle_beta     81.87085169997916
_cell_angle_gamma    90.0

_space_group_name_H-M_alt    "P 1"
_space_group_IT_number       1

loop_
  _space_group_symop_operation_xyz
  'x, y, z'

loop_
  _atom_site_type_symbol
  _atom_site_label
  _atom_site_symmetry_multiplicity
  _atom_site_fract_x
  _atom_site_fract_y
  _atom_site_fract_z
  _atom_site_occupancy
  C   C1        1.0  0.0068869599385137795  0.005000000892072207  0.9997916519858262  1.0000
  O   O1        1.0  0.0068869599385137795  0.005000000892072207  0.9999071372051499  1.0000
  Ca  Ca1       1.0  0.0037576875526848788  0.005000000123044442  0.9993366304345257  1.0000
  Ca  Ca2       1.0  0.008814758813208637  0.005000000123044442  0.999522547088274  1.0000
  Ca  Ca3       1.0  0.00029453003670640006  5.000000411699746e-11  0.9995229109545123  1.0000
  Ca  Ca4       1.0  0.005384890773996127  5.000000411699746e-11  0.9992607715711078  1.0000
  Ca  Ca5       1.0  0.00445623630080667  4.5000003705297713e-10  0.9994942791979436  1.0000
  Ca  Ca6       1.0  0.009512093520763832  5.000000411699746e-11  0.9993014605168652  1.0000
  Ca  Ca7       1.0  0.0003848906520648001  0.005000000123044442  0.9992607717144616  1.0000
  Ca  Ca8       1.0  0.005396285970541237  0.005000001661099972  0.9995303800464642  1.0000
  Ca  Ca9       1.0  0.0013576886321835628  0.010000000246088884  0.9996324979308555  1.0000
  Ca  Ca10      1.0  0.00625408318356036  1.3500000653213047e-09  0.9994710052375997  1.0000
  Ca  Ca11      1.0  0.0029087291525639355  0.005000000123044442  0.9996345622226988  1.0000
  Ca  Ca12      1.0  0.007884890738844753  0.005000000123044442  0.999377319933422  1.0000
  Ca  Ca13      1.0  0.002040489564921044  0.005000000123044442  0.9994251543224949  1.0000
  Ca  Ca14      1.0  0.006959180193196448  0.005000000892072207  0.9996232710159156  1.0000
  Ca  Ca15      1.0  0.002884890589451416  5.000000411699746e-11  0.9993773195044331  1.0000
  Ca  Ca16      1.0  0.007909479124695926  1.5000001235099239e-10  0.9996312666489539  1.0000
  Sb  Sb1       1.0  0.004705470085224927  0.005000000123044442  0.9992924455996236  1.0000
  Sb  Sb2       1.0  0.009704420746419452  0.005000000123044442  0.9995057415908072  1.0000
  Sb  Sb3       1.0  0.0035545345827368846  5.000000411699746e-11  0.9995546740132605  1.0000
  Sb  Sb4       1.0  0.008564311427615953  5.000000411699746e-11  0.9993456459049062  1.0000
  Sb  Sb5       1.0  0.0022403481920720545  5.000000411699746e-11  0.9996247574506409  1.0000
  Sb  Sb6       1.0  0.007247742652603642  2.500000205849873e-10  0.9994251009763965  1.0000
  Sb  Sb7       1.0  0.0010359842493935965  0.005000000123044442  0.9994803131056923  1.0000
  Sb  Sb8       1.0  0.006093333315617041  0.005000000892072207  0.9996740811793744  1.0000
  Ca  Ca17      1.0  0.0037576875526848788  0.005000000123044442  0.9988704387241651  1.0000
  Ca  Ca18      1.0  0.008757687921774301  0.005000000123044442  0.999103534567875  1.0000
  Ca  Ca19      1.0  0.0003848906520648001  5.000000411699746e-11  0.9990276757158756  1.0000
  Ca  Ca20      1.0  0.005384890773996127  5.000000411699746e-11  0.9987945798607473  1.0000
  Ca  Ca21      1.0  0.004512093591066579  5.000000411699746e-11  0.9990683649394827  1.0000
  Ca  Ca22      1.0  0.009512093520763832  5.000000411699746e-11  0.9988352690933162  1.0000
  Ca  Ca23      1.0  0.0003848906520648001  0.005000000123044442  0.9987945800041012  1.0000
  Ca  Ca24      1.0  0.005384890773996127  0.005000000123044442  0.9990276758593333  1.0000
  Ca  Ca25      1.0  0.0012576875878362523  5.000000411699746e-11  0.9992200826458345  1.0000
  Ca  Ca26      1.0  0.006257687517533505  5.000000411699746e-11  0.9989869867996679  1.0000
  Ca  Ca27      1.0  0.002884890589451416  0.005000000123044442  0.9991442237926587  1.0000
  Ca  Ca28      1.0  0.007884890738844753  0.005000000123044442  0.99891112793625  1.0000
  Ca  Ca29      1.0  0.002012093626217953  0.005000000123044442  0.99895181686398  1.0000
  Ca  Ca30      1.0  0.007012093555915205  0.005000000123044442  0.999184912728174  1.0000
  Ca  Ca31      1.0  0.002884890589451416  5.000000411699746e-11  0.9989111277940727  1.0000
  Ca  Ca32      1.0  0.007884890738844753  5.000000411699746e-11  0.9991442236480245  1.0000
  Sb  Sb9       1.0  0.004705470085224927  0.005000000123044442  0.998826253889263  1.0000
  Sb  Sb10      1.0  0.009705470014922179  0.005000000123044442  0.999059349753457  1.0000
  Sb  Sb11      1.0  0.003564311278222616  5.000000411699746e-11  0.9991125497641428  1.0000
  Sb  Sb12      1.0  0.008564311427615953  5.000000411699746e-11  0.9988794539077342  1.0000
  Sb  Sb13      1.0  0.0022054699006802156  5.000000411699746e-11  0.9991758978211744  1.0000
  Sb  Sb14      1.0  0.007205470050073553  5.000000411699746e-11  0.9989428019647658  1.0000
  Sb  Sb15      1.0  0.0010643113133739896  0.005000000123044442  0.9989960016886401  1.0000
  Sb  Sb16      1.0  0.006064311462767327  0.005000000123044442  0.999229097542592  1.0000
