data_image0
_chemical_formula_structural       HV24
_chemical_formula_sum              "H1 V24"
_cell_length_a       5.993828296661377
_cell_length_b       5.993828296661377
_cell_length_c       99.9691390991211
_cell_angle_alpha    90.0
_cell_angle_beta     90.0
_cell_angle_gamma    90.0

_space_group_name_H-M_alt    "P 1"
_space_group_IT_number       1

loop_
  _space_group_symop_operation_xyz
  'x, y, z'

loop_
  _atom_site_type_symbol
  _atom_site_label
  _atom_site_symmetry_multiplicity
  _atom_site_fract_x
  _atom_site_fract_y
  _atom_site_fract_z
  _atom_site_occupancy
  H   H1        1.0  0.006249999875695795  0.0012499999751391592  0.00015004616254634857  1.0000
  V   V1        1.0  0.0012499999751391592  0.0037499999254174774  0.9998501076649097  1.0000
  V   V2        1.0  0.0037499999254174774  0.0012499999751391592  0.0  1.0000
  V   V3        1.0  0.0012499999751391592  0.0037499999254174774  0.9995503238890748  1.0000
  V   V4        1.0  0.0037499999254174774  0.0012499999751391592  0.9997002159260499  1.0000
  V   V5        1.0  0.0012499999751391592  0.0037499999254174774  0.9992505401132399  1.0000
  V   V6        1.0  0.0037499999254174774  0.0012499999751391592  0.9994004318520997  1.0000
  V   V7        1.0  0.0012499999751391592  0.008749999825974113  0.9998501076649097  1.0000
  V   V8        1.0  0.0037499999254174774  0.006249999875695795  0.0  1.0000
  V   V9        1.0  0.0012499999751391592  0.008749999825974113  0.9995503238890748  1.0000
  V   V10       1.0  0.0037499999254174774  0.006249999875695795  0.9997002159260499  1.0000
  V   V11       1.0  0.0012499999751391592  0.008749999825974113  0.9992505401132399  1.0000
  V   V12       1.0  0.0037499999254174774  0.006249999875695795  0.9994004318520997  1.0000
  V   V13       1.0  0.006249999875695795  0.0037499999254174774  0.9998501076649097  1.0000
  V   V14       1.0  0.008749999825974113  0.0012499999751391592  0.0  1.0000
  V   V15       1.0  0.006249999875695795  0.0037499999254174774  0.9995503238890748  1.0000
  V   V16       1.0  0.008749999825974113  0.0012499999751391592  0.9997002159260499  1.0000
  V   V17       1.0  0.006249999875695795  0.0037499999254174774  0.9992505401132399  1.0000
  V   V18       1.0  0.008749999825974113  0.0012499999751391592  0.9994004318520997  1.0000
  V   V19       1.0  0.006249999875695795  0.008749999825974113  0.9998501076649097  1.0000
  V   V20       1.0  0.008749999825974113  0.006249999875695795  0.0  1.0000
  V   V21       1.0  0.006249999875695795  0.008749999825974113  0.9995503238890748  1.0000
  V   V22       1.0  0.008749999825974113  0.006249999875695795  0.9997002159260499  1.0000
  V   V23       1.0  0.006249999875695795  0.008749999825974113  0.9992505401132399  1.0000
  V   V24       1.0  0.008749999825974113  0.006249999875695795  0.9994004318520997  1.0000
