data_image0
_chemical_formula_structural       HPd8Re8Ti16Pd8Re8Ti16
_chemical_formula_sum              "H1 Pd16 Re16 Ti32"
_cell_length_a       8.900968551635742
_cell_length_b       10.901415824890137
_cell_length_c       100.8338623046875
_cell_angle_alpha    90.0
_cell_angle_beta     90.0
_cell_angle_gamma    90.0

_space_group_name_H-M_alt    "P 1"
_space_group_IT_number       1

loop_
  _space_group_symop_operation_xyz
  'x, y, z'

loop_
  _atom_site_type_symbol
  _atom_site_label
  _atom_site_symmetry_multiplicity
  _atom_site_fract_x
  _atom_site_fract_y
  _atom_site_fract_z
  _atom_site_occupancy
  H   H1        1.0  0.004999996333708762  0.009858564218299018  0.00012168268730229254  1.0000
  Pd  Pd1       1.0  0.002500000468749565  0.005141435467313647  0.9991176595355721  1.0000
  Pd  Pd2       1.0  0.002500000468749565  0.001808102222828908  0.9993724834243131  1.0000
  Pd  Pd3       1.0  0.002500000468749565  0.008474768540935703  0.9996273076086127  1.0000
  Pd  Pd4       1.0  0.0025000268359125807  0.005253321135870181  0.9998886228524565  1.0000
  Pd  Pd5       1.0  4.500000151280126e-10  0.008474768540935703  0.9992450716277219  1.0000
  Pd  Pd6       1.0  4.500000151280126e-10  0.005141435467313647  0.9994998955164629  1.0000
  Pd  Pd7       1.0  0.009999991830364728  0.0018026831419955607  0.9997508026616888  1.0000
  Pd  Pd8       1.0  0.009999999363839876  0.008576925971810074  0.9999989933271648  1.0000
  Re  Re1       1.0  2.8500000958107466e-09  0.00350339953587025  0.9999883674018061  1.0000
  Re  Re2       1.0  4.500000151280126e-10  0.003474768759639936  0.9992450716277219  1.0000
  Re  Re3       1.0  4.500000151280126e-10  0.00014143545108169145  0.9994998955164629  1.0000
  Re  Re4       1.0  6.550000220196628e-09  0.006819225335608208  0.9997591864789653  1.0000
  Re  Re5       1.0  0.002500000468749565  0.006808102174987357  0.9993724834243131  1.0000
  Re  Re6       1.0  0.002500000468749565  0.003474768759639936  0.9996273076086127  1.0000
  Re  Re7       1.0  0.002499997957591182  0.00023554364777982837  0.9998789167056835  1.0000
  Re  Re8       1.0  0.002500000468749565  0.00014143545108169145  0.9991176595355721  1.0000
  Ti  Ti1       1.0  1.2150000408456342e-08  0.004271196628403049  0.9997598680372619  1.0000
  Ti  Ti2       1.0  0.009999993504470317  0.0011402034147844763  0.0  1.0000
  Ti  Ti3       1.0  4.500000151280126e-10  0.0009747688689920526  0.9992450716277219  1.0000
  Ti  Ti4       1.0  4.500000151280126e-10  0.007641435699686895  0.9994998955164629  1.0000
  Ti  Ti5       1.0  4.500000151280126e-10  0.002641435405803081  0.9994998955164629  1.0000
  Ti  Ti6       1.0  8.55000028743224e-09  0.009354288299026075  0.9997565506867327  1.0000
  Ti  Ti7       1.0  1.554999972448113e-08  0.005987360546526133  0.9999944145322255  1.0000
  Ti  Ti8       1.0  4.500000151280126e-10  0.005974768650287819  0.9992450716277219  1.0000
  Ti  Ti9       1.0  0.002500000468749565  0.004308102284339473  0.9993724834243131  1.0000
  Ti  Ti10      1.0  0.002500000468749565  0.0009747688689920526  0.9996273076086127  1.0000
  Ti  Ti11      1.0  0.002500017628331845  0.007744727658772057  0.9998839086916457  1.0000
  Ti  Ti12      1.0  0.002500000468749565  0.007641435699686895  0.9991176595355721  1.0000
  Ti  Ti13      1.0  0.002500000468749565  0.005974768650287819  0.9996273076086127  1.0000
  Ti  Ti14      1.0  0.002499994400116807  0.002701143882737614  0.9998862814366607  1.0000
  Ti  Ti15      1.0  0.002500000468749565  0.002641435405803081  0.9991176595355721  1.0000
  Ti  Ti16      1.0  0.002500000468749565  0.00930810206563524  0.9993724834243131  1.0000
  Pd  Pd9       1.0  0.0075000005691959  0.005141435467313647  0.9991176595355721  1.0000
  Pd  Pd10      1.0  0.0075000005691959  0.001808102222828908  0.9993724834243131  1.0000
  Pd  Pd11      1.0  0.0075000005691959  0.008474768540935703  0.9996273076086127  1.0000
  Pd  Pd12      1.0  0.007500027354885313  0.005253321135870181  0.9998886228524565  1.0000
  Pd  Pd13      1.0  0.005000000518972732  0.008474768540935703  0.9992450716277219  1.0000
  Pd  Pd14      1.0  0.005000000518972732  0.005141435467313647  0.9994998955164629  1.0000
  Pd  Pd15      1.0  0.004999991311391996  0.0018026831419955607  0.9997508026616888  1.0000
  Pd  Pd16      1.0  0.004999999681919938  0.008576925971810074  0.9999989933271648  1.0000
  Re  Re9       1.0  0.005000003030131115  0.00350339953587025  0.9999883674018061  1.0000
  Re  Re10      1.0  0.005000000518972732  0.003474768759639936  0.9992450716277219  1.0000
  Re  Re11      1.0  0.005000000518972732  0.00014143545108169145  0.9994998955164629  1.0000
  Re  Re12      1.0  0.005000006796868689  0.006819225335608208  0.9997591864789653  1.0000
  Re  Re13      1.0  0.0075000005691959  0.006808102174987357  0.9993724834243131  1.0000
  Re  Re14      1.0  0.0075000005691959  0.003474768759639936  0.9996273076086127  1.0000
  Re  Re15      1.0  0.007499998058037517  0.00023554364777982837  0.9998789167056835  1.0000
  Re  Re16      1.0  0.0075000005691959  0.00014143545108169145  0.9991176595355721  1.0000
  Ti  Ti17      1.0  0.005000012237711851  0.004271196628403049  0.9997598680372619  1.0000
  Ti  Ti18      1.0  0.004999993404023982  0.0011402034147844763  0.0  1.0000
  Ti  Ti19      1.0  0.005000000518972732  0.0009747688689920526  0.9992450716277219  1.0000
  Ti  Ti20      1.0  0.005000000518972732  0.007641435699686895  0.9994998955164629  1.0000
  Ti  Ti21      1.0  0.005000000518972732  0.002641435405803081  0.9994998955164629  1.0000
  Ti  Ti22      1.0  0.005000008470974277  0.009354288299026075  0.9997565506867327  1.0000
  Ti  Ti23      1.0  0.005000015585923027  0.005987360546526133  0.9999944145322255  1.0000
  Ti  Ti24      1.0  0.005000000518972732  0.005974768650287819  0.9992450716277219  1.0000
  Ti  Ti25      1.0  0.0075000005691959  0.004308102284339473  0.9993724834243131  1.0000
  Ti  Ti26      1.0  0.0075000005691959  0.0009747688689920526  0.9996273076086127  1.0000
  Ti  Ti27      1.0  0.007500017310251783  0.007744727658772057  0.9998839086916457  1.0000
  Ti  Ti28      1.0  0.0075000005691959  0.007641435699686895  0.9991176595355721  1.0000
  Ti  Ti29      1.0  0.0075000005691959  0.005974768650287819  0.9996273076086127  1.0000
  Ti  Ti30      1.0  0.00749999470982634  0.002701143882737614  0.9998862814366607  1.0000
  Ti  Ti31      1.0  0.0075000005691959  0.002641435405803081  0.9991176595355721  1.0000
  Ti  Ti32      1.0  0.0075000005691959  0.00930810206563524  0.9993724834243131  1.0000
