data_image0
_chemical_formula_structural       COIr18W6
_chemical_formula_sum              "C1 O1 Ir18 W6"
_cell_length_a       9.627264976501465
_cell_length_b       7.113508622099034
_cell_length_c       98.45403289794922
_cell_angle_alpha    85.17088057436467
_cell_angle_beta     90.0
_cell_angle_gamma    47.41455750051721

_space_group_name_H-M_alt    "P 1"
_space_group_IT_number       1

loop_
  _space_group_symop_operation_xyz
  'x, y, z'

loop_
  _atom_site_type_symbol
  _atom_site_label
  _atom_site_symmetry_multiplicity
  _atom_site_fract_x
  _atom_site_fract_y
  _atom_site_fract_z
  _atom_site_occupancy
  C   C1        1.0  0.006872256073341567  0.001289608917091623  7.49603489548018e-05  1.0000
  O   O1        1.0  0.006872256073341567  0.001289608917091623  0.0001968442815966332  1.0000
  Ir  Ir1       1.0  0.007495088732951594  0.006665299041634911  0.9993630694816525  1.0000
  Ir  Ir2       1.0  0.0009469489260836488  0.009949186432362376  0.999848859166235  1.0000
  Ir  Ir3       1.0  0.004161755881756056  0.003331965765579504  0.9996039098300479  1.0000
  Ir  Ir4       1.0  0.005813368107425459  0.006732651438482408  0.9997208517987992  1.0000
  Ir  Ir5       1.0  0.00916175573298286  1.3678000293822243e-06  0.9994832920378142  1.0000
  Ir  Ir6       1.0  0.002434763770276692  0.003312817397033535  0.9999515180419624  1.0000
  Ir  Ir7       1.0  0.00418081276535612  0.0049736907308644985  0.9998464136997894  1.0000
  Ir  Ir8       1.0  0.007493720998050594  0.00833333390611259  0.9996038108125015  1.0000
  Ir  Ir9       1.0  0.0008270549837216598  0.0016666668170212215  0.9993629705389758  1.0000
  Ir  Ir10      1.0  0.0058582929421999875  0.009910465122646242  0.9998473045031694  1.0000
  Ir  Ir11      1.0  0.009160387681509877  0.0033347011445183463  0.9996037121757938  1.0000
  Ir  Ir12      1.0  0.002493721375265413  0.006668034778560789  0.9993628718252211  1.0000
  Ir  Ir13      1.0  0.009161602066555597  0.008375035099912864  0.9999490589386655  1.0000
  Ir  Ir14      1.0  0.0024377286127836052  0.0017467146871048968  0.9997189804997391  1.0000
  Ir  Ir15      1.0  0.005829789799624638  0.005000000272070147  0.999483390676283  1.0000
  Ir  Ir16      1.0  0.00750559762677001  0.003429994071505579  0.9999484436279803  1.0000
  Ir  Ir17      1.0  0.000886576280894542  0.006695735815373725  0.9997214874082351  1.0000
  Ir  Ir18      1.0  0.004163123474152391  0.009998632317690319  0.9994834896200485  1.0000
  W   W1        1.0  0.004199349114463769  0.008341982156918054  0.9999431169299554  1.0000
  W   W2        1.0  0.007463750252489167  0.0017261001826547227  0.9997242554691688  1.0000
  W   W3        1.0  0.000828422434765148  0.005000000272070147  0.999483390676283  1.0000
  W   W4        1.0  0.009172944826606055  0.004983281561534637  0.9998518046214738  1.0000
  W   W5        1.0  0.0024950886105594215  0.00833333390611259  0.9996038108125015  1.0000
  W   W6        1.0  0.005828422155105106  0.0016666668170212215  0.9993629705389758  1.0000
