data_image0
_chemical_formula_structural       HV30Ga10
_chemical_formula_sum              "H1 V30 Ga10"
_cell_length_a       6.791942596435547
_cell_length_b       10.739004171619305
_cell_length_c       103.27359008789062
_cell_angle_alpha    75.03678223013206
_cell_angle_beta     90.0
_cell_angle_gamma    71.56505117830908

_space_group_name_H-M_alt    "P 1"
_space_group_IT_number       1

loop_
  _space_group_symop_operation_xyz
  'x, y, z'

loop_
  _atom_site_type_symbol
  _atom_site_label
  _atom_site_symmetry_multiplicity
  _atom_site_fract_x
  _atom_site_fract_y
  _atom_site_fract_z
  _atom_site_occupancy
  H   H1        1.0  0.0005468072047307675  0.003940929810538049  0.9998646400837525  1.0000
  V   V1        1.0  0.007549567625451417  0.002500683495737792  0.9994648203694708  1.0000
  V   V2        1.0  0.005653721393194845  0.006437570267067632  0.9996230991227334  1.0000
  V   V3        1.0  0.009549567625552107  0.008500683451657474  0.99930372599913  1.0000
  V   V4        1.0  0.0036033982773970596  0.00044906002665333176  0.9997780078577241  1.0000
  V   V5        1.0  0.0015495675280700245  0.0045006837343795165  0.9991426316084718  1.0000
  V   V6        1.0  0.0006617894781827442  0.0015029036374568062  0.9996342525674314  1.0000
  V   V7        1.0  0.008659178221037688  0.0054000050713646375  0.9997688962242556  1.0000
  V   V8        1.0  0.002549567944864758  0.007500683427337298  0.9994648202327907  1.0000
  V   V9        1.0  0.006549567350118396  0.009500683475977649  0.9991426317654694  1.0000
  V   V10       1.0  0.004549567803503737  0.0035006837100593404  0.9993037261307088  1.0000
  V   V11       1.0  0.006049567683971841  0.005500683378696946  0.9993842731868511  1.0000
  V   V12       1.0  0.004049567635331489  0.009500683475977649  0.9995453672787302  1.0000
  V   V13       1.0  0.008049567637611506  0.0015006834714176164  0.9992231788012943  1.0000
  V   V14       1.0  0.001953574400645796  0.003443578037509688  0.9997086251285983  1.0000
  V   V15       1.0  0.009659474890238877  0.007747834172833372  0.9998314413224408  1.0000
  V   V16       1.0  0.004049567791343648  0.0045006837343795165  0.9995453674103091  1.0000
  V   V17       1.0  0.0019454380603603173  0.008532747323297143  0.9997030611550641  1.0000
  V   V18       1.0  0.006049567911234515  0.0005006834945977838  0.999384273322256  1.0000
  V   V19       1.0  0.00995043248147231  0.002539709967677514  0.9998449612119705  1.0000
  V   V20       1.0  0.00804956738659866  0.0065006834030171224  0.9992231789531905  1.0000
  V   V21       1.0  0.0005495676767566153  0.004000683722219428  0.999424546770509  1.0000
  V   V22       1.0  0.008616581862231226  0.007975930820676547  0.9995877939343345  1.0000
  V   V23       1.0  0.0025495677878571345  6.835000183892591e-07  0.9992634523934074  1.0000
  V   V24       1.0  0.0065076931858339  0.0021525618407955576  0.999747028807048  1.0000
  V   V25       1.0  0.004549567546254985  0.006000683390857035  0.999102358024814  1.0000
  V   V26       1.0  0.009549567524315515  0.006000683390857035  0.9995050938266512  1.0000
  V   V27       1.0  0.007559347204332744  0.009999316238260288  0.9996764269584815  1.0000
  V   V28       1.0  0.0015495677960774773  0.002000683483577704  0.9993439997296708  1.0000
  V   V29       1.0  0.00573836337190883  0.0038911832711531298  0.9998079620606636  1.0000
  V   V30       1.0  0.0035495675219348087  0.008000683439497386  0.99918290535933  1.0000
  Ga  Ga1       1.0  0.008065378367021576  0.004012479387435089  0.9996123922792686  1.0000
  Ga  Ga2       1.0  0.0059138229821728144  0.007903161054964473  0.9997878075394658  1.0000
  Ga  Ga3       1.0  4.956764885003242e-05  6.835000183892591e-07  0.9994648201500379  1.0000
  Ga  Ga4       1.0  0.004049567785107743  0.002000683483577704  0.9991426313958875  1.0000
  Ga  Ga5       1.0  0.0020495678314680775  0.006000683390857035  0.9993037257814444  1.0000
  Ga  Ga6       1.0  0.008049567095360694  0.004000683722219428  0.9992231787253021  1.0000
  Ga  Ga7       1.0  0.006049567236721716  0.008000683439497386  0.999384272827384  1.0000
  Ga  Ga8       1.0  0.00011987373572619607  0.009993049992990926  0.9998722650166056  1.0000
  Ga  Ga9       1.0  0.004049567785107743  0.002000683483577704  0.9995453671977248  1.0000
  Ga  Ga10      1.0  0.002128301132593121  0.005966313662559119  0.9997107015641349  1.0000
