data_image0
_chemical_formula_structural       COFe5Cu5Pt10Fe5Cu5Pt10
_chemical_formula_sum              "C1 O1 Fe10 Cu10 Pt20"
_cell_length_a       5.562255382537842
_cell_length_b       8.13357980267303
_cell_length_c       109.6227798461914
_cell_angle_alpha    79.4075347625225
_cell_angle_beta     90.0
_cell_angle_gamma    70.0054006322269

_space_group_name_H-M_alt    "P 1"
_space_group_IT_number       1

loop_
  _space_group_symop_operation_xyz
  'x, y, z'

loop_
  _atom_site_type_symbol
  _atom_site_label
  _atom_site_symmetry_multiplicity
  _atom_site_fract_x
  _atom_site_fract_y
  _atom_site_fract_z
  _atom_site_occupancy
  C   C1        1.0  0.00022441096358346972  0.009776760364829688  0.00015753198151324533  1.0000
  O   O1        1.0  0.00022441096358346972  0.009776760364829688  0.0002669985023908582  1.0000
  Fe  Fe1       1.0  0.009001594305761543  0.0022232391660094173  0.9991545897140875  1.0000
  Fe  Fe2       1.0  0.007001594218290868  0.006223239340950767  0.9992750717833226  1.0000
  Fe  Fe3       1.0  0.0010015939542305727  0.00822323893142897  0.9990341079392774  1.0000
  Fe  Fe4       1.0  0.005001593771958583  0.0002232392959729487  0.9993955541056707  1.0000
  Fe  Fe5       1.0  0.0030015937932050115  0.004223239253480092  0.9989136253195389  1.0000
  Cu  Cu1       1.0  0.008001594262026205  0.004223239253480092  0.9989136253195389  1.0000
  Cu  Cu2       1.0  0.006001594423051767  0.00822323893142897  0.9990341079392774  1.0000
  Cu  Cu3       1.0  1.593753122017194e-06  0.0002232392959729487  0.9993955541056707  1.0000
  Cu  Cu4       1.0  0.004001593836940349  0.0022232391660094173  0.9991545897140875  1.0000
  Cu  Cu5       1.0  0.0020015937494696737  0.006223239340950767  0.9992750717833226  1.0000
  Pt  Pt1       1.0  0.005001593838311799  0.0052232392972154295  0.9990943485514308  1.0000
  Pt  Pt2       1.0  0.00300159399933736  0.009223238975164307  0.9992148311711693  1.0000
  Pt  Pt3       1.0  0.007001593863658415  0.0012232392465221977  0.9989738664805011  1.0000
  Pt  Pt4       1.0  0.0010015939155343645  0.0032232392097447547  0.9993353129459794  1.0000
  Pt  Pt5       1.0  0.009001593928525375  0.007223239384686104  0.9988533844287446  1.0000
  Pt  Pt6       1.0  1.5938717990269284e-06  0.0052232392972154295  0.9990943485514308  1.0000
  Pt  Pt7       1.0  0.008001594133286273  0.009223238975164307  0.9992148311711693  1.0000
  Pt  Pt8       1.0  0.0020015938971456432  0.0012232392465221977  0.9989738664805011  1.0000
  Pt  Pt9       1.0  0.006001593882047137  0.0032232392097447547  0.9993353129459794  1.0000
  Pt  Pt10      1.0  0.004001593794576461  0.007223239384686104  0.9988533844287446  1.0000
  Fe  Fe6       1.0  0.00901042269513711  0.0022231109419516607  0.9997567065348582  1.0000
  Fe  Fe7       1.0  0.0069947691706234135  0.0062211544575310465  0.9998768586071367  1.0000
  Fe  Fe8       1.0  0.0010015939542305727  0.00822323893142897  0.9996365187976098  1.0000
  Fe  Fe9       1.0  0.004999236804390595  0.00023099320167874196  0.9999968495121322  1.0000
  Fe  Fe10      1.0  0.0030015937932050115  0.004223239253480092  0.9995160361778713  1.0000
  Cu  Cu6       1.0  0.008001594262026205  0.004223239253480092  0.9995160361778713  1.0000
  Cu  Cu7       1.0  0.006001594423051767  0.00822323893142897  0.9996365187976098  1.0000
  Cu  Cu8       1.0  0.009998406334784939  0.00022876989032457598  0.9999964182130865  1.0000
  Cu  Cu9       1.0  0.0039800449821397405  0.0022112892305182446  0.9997565458845329  1.0000
  Cu  Cu10      1.0  0.0020101409326532247  0.006220841849266206  0.9998760576140536  1.0000
  Pt  Pt11      1.0  0.005001593838311799  0.0052232392972154295  0.9996967599534882  1.0000
  Pt  Pt12      1.0  0.002944316253293741  0.00924292782893204  0.999814862211514  1.0000
  Pt  Pt13      1.0  0.007001593863658415  0.0012232392465221977  0.9995762773388336  1.0000
  Pt  Pt14      1.0  0.0010145462940200653  0.003225199845046494  0.9999358418737854  1.0000
  Pt  Pt15      1.0  0.009001593928525375  0.007223239384686104  0.9994557955589395  1.0000
  Pt  Pt16      1.0  1.5938717990269284e-06  0.0052232392972154295  0.9996967599534882  1.0000
  Pt  Pt17      1.0  0.008032459634177466  0.009250975131037432  0.9998159312511268  1.0000
  Pt  Pt18      1.0  0.0020015938971456432  0.0012232392465221977  0.9995762773388336  1.0000
  Pt  Pt19      1.0  0.005996176756936243  0.0032222176417187154  0.9999358966845395  1.0000
  Pt  Pt20      1.0  0.004001593794576461  0.007223239384686104  0.9994557955589395  1.0000
