data_image0
_chemical_formula_structural       Rh8Sn4V4CO
_chemical_formula_sum              "Rh8 Sn4 V4 C1 O1"
_cell_length_a       4.698842097480492
_cell_length_b       5.802181243896484
_cell_length_c       106.51702880859375
_cell_angle_alpha    90.0
_cell_angle_beta     90.73013468418624
_cell_angle_gamma    90.0

_space_group_name_H-M_alt    "P 1"
_space_group_IT_number       1

loop_
  _space_group_symop_operation_xyz
  'x, y, z'

loop_
  _atom_site_type_symbol
  _atom_site_label
  _atom_site_symmetry_multiplicity
  _atom_site_fract_x
  _atom_site_fract_y
  _atom_site_fract_z
  _atom_site_occupancy
  Rh  Rh1       1.0  0.004163483116362233  0.007500282014029192  0.9995409578495817  1.0000
  Rh  Rh2       1.0  0.0008365169510321122  0.0024477999441221343  0.9997630656769292  1.0000
  Rh  Rh3       1.0  0.00791348289435733  0.0025002817507887042  0.9993266902583218  1.0000
  Rh  Rh4       1.0  0.006343038845352247  0.007505291287901699  0.999959280595655  1.0000
  Rh  Rh5       1.0  0.004163483116362233  0.0025002817507887042  0.9995409578495817  1.0000
  Rh  Rh6       1.0  0.000837293472644835  0.007551817439038742  0.9997630957711021  1.0000
  Rh  Rh7       1.0  0.00791348289435733  0.007500282014029192  0.9993266902583218  1.0000
  Rh  Rh8       1.0  0.006342760546349245  0.002495984670846354  0.9999593442311685  1.0000
  Sn  Sn1       1.0  0.005793076010875855  0.0050013426292170255  0.9997496963384213  1.0000
  Sn  Sn2       1.0  0.0013954441254381996  5.265000212736436e-07  7.844275747570093e-07  1.0000
  Sn  Sn3       1.0  0.009163483084647248  2.816999929272839e-07  0.9995409577600314  1.0000
  Sn  Sn4       1.0  0.0029134831242909795  0.005000281641640209  0.9993266903479836  1.0000
  V   V1        1.0  0.009163483084647248  0.005000281641640209  0.9995409577600314  1.0000
  V   V2        1.0  0.005736555544840119  0.00999971834551879  0.9997688396445571  1.0000
  V   V3        1.0  0.0029134831242909795  2.816999929272839e-07  0.9993266903479836  1.0000
  V   V4        1.0  0.0013394797618618108  0.005000981476108427  0.9999473232887335  1.0000
  C   C1        1.0  0.008841120072835875  0.0037484829129648973  0.00014109745570226693  1.0000
  O   O1        1.0  0.008841120072835875  0.0037484829129648973  0.00025375516732144553  1.0000
