data_image0
_chemical_formula_structural       Co8Sb16H
_chemical_formula_sum              "Co8 Sb16 H1"
_cell_length_a       6.581163802091107
_cell_length_b       9.250197761840099
_cell_length_c       107.00079345703125
_cell_angle_alpha    88.53388514413888
_cell_angle_beta     109.10502569504874
_cell_angle_gamma    109.10502724732444

_space_group_name_H-M_alt    "P 1"
_space_group_IT_number       1

loop_
  _space_group_symop_operation_xyz
  'x, y, z'

loop_
  _atom_site_type_symbol
  _atom_site_label
  _atom_site_symmetry_multiplicity
  _atom_site_fract_x
  _atom_site_fract_y
  _atom_site_fract_z
  _atom_site_occupancy
  Co  Co1       1.0  0.007046750100852919  0.0035904305348325206  0.9995751385213275  1.0000
  Co  Co2       1.0  0.006992807220492633  0.008586186750492057  1.469269814559585e-05  1.0000
  Co  Co3       1.0  0.002457721242966001  0.006417014641084222  0.9993872471345252  1.0000
  Co  Co4       1.0  0.0024577210519887414  0.001417014380010963  0.9998194960202113  1.0000
  Co  Co5       1.0  0.002457721082564553  0.0064095693453305735  0.9998201399576847  1.0000
  Co  Co6       1.0  0.0024577210527418443  0.0014095694052490262  0.9993878908813874  1.0000
  Co  Co7       1.0  0.0071012125164977135  0.0035167931102380104  1.0933171336928846e-06  1.0000
  Co  Co8       1.0  0.007046750077710547  0.008582985393154894  0.999575782179432  1.0000
  Sb  Sb1       1.0  0.005193584464348815  0.007503324207285032  0.00019654879766601294  1.0000
  Sb  Sb2       1.0  0.006266475641114334  0.0023899964314623838  0.9997794370323511  1.0000
  Sb  Sb3       1.0  0.003237995663608931  0.004053813741729473  0.9994910244669534  1.0000
  Sb  Sb4       1.0  0.0032379955859952714  0.009053813467816545  0.9999232732630369  1.0000
  Sb  Sb5       1.0  0.0034207492222068535  0.0025084154097441565  5.7889274268734705e-05  1.0000
  Sb  Sb6       1.0  0.0032379957571758732  0.007610003876689659  0.9996158414500401  1.0000
  Sb  Sb7       1.0  0.006266475734681276  0.0059461865664225694  0.9999042540154379  1.0000
  Sb  Sb8       1.0  0.0062664755974222  0.0009461864123465484  0.999472004937451  1.0000
  Sb  Sb9       1.0  0.00828215958388911  0.004947535128785093  0.9993821432425457  1.0000
  Sb  Sb10      1.0  0.008282159506275451  0.009947534854872165  0.9998143923171536  1.0000
  Sb  Sb11      1.0  0.0014659565745897356  0.009031504971848325  0.00014226123185886373  1.0000
  Sb  Sb12      1.0  0.0012223116675369448  0.0036494703263552004  0.9997021747604226  1.0000
  Sb  Sb13      1.0  0.001288901545633401  0.00505036032971666  1.4775919670043045e-05  1.0000
  Sb  Sb14      1.0  0.0012223115156289402  5.2465001885282756e-05  0.999580886158659  1.0000
  Sb  Sb15      1.0  0.008459177858818587  0.0014385725043546676  0.00012164187086393279  1.0000
  Sb  Sb16      1.0  0.008282159955396605  0.006350529981796842  0.9996931037264909  1.0000
  H   H1        1.0  0.008777688548802379  0.005498273448069615  9.970059695491406e-05  1.0000
