data_image0
_chemical_formula_structural       COV18Ni6V18Ni6
_chemical_formula_sum              "C1 O1 V36 Ni12"
_cell_length_a       10.46463019513358
_cell_length_b       4.679924964904785
_cell_length_c       109.71047973632812
_cell_angle_alpha    90.0
_cell_angle_beta     108.43494799732362
_cell_angle_gamma    90.0

_space_group_name_H-M_alt    "P 1"
_space_group_IT_number       1

loop_
  _space_group_symop_operation_xyz
  'x, y, z'

loop_
  _atom_site_type_symbol
  _atom_site_label
  _atom_site_symmetry_multiplicity
  _atom_site_fract_x
  _atom_site_fract_y
  _atom_site_fract_z
  _atom_site_occupancy
  C   C1        1.0  0.006385049044588863  0.0012499999084582792  0.0001925927747372511  1.0000
  O   O1        1.0  0.006385049044588863  0.0012499999084582792  0.00030197179073950756  1.0000
  V   V1        1.0  0.008749999489666723  0.0012499999084582792  1.0423577682101454e-06  1.0000
  V   V2        1.0  0.005416666511565377  0.0012499999084582792  0.9995988677545479  1.0000
  V   V3        1.0  0.002083333158218974  0.0012499999084582792  0.9997999551369725  1.0000
  V   V4        1.0  0.007083332812993523  0.0012499999084582792  0.00010158577733534992  1.0000
  V   V5        1.0  0.0037499998348921753  0.0012499999084582792  0.9996994117174053  1.0000
  V   V6        1.0  0.0004166666691683004  0.0012499999084582792  0.9999004985621989  1.0000
  V   V7        1.0  0.008749999489666723  0.0062499998407970075  0.9998502271301725  1.0000
  V   V8        1.0  0.005416666511565377  0.0062499998407970075  5.131398062532374e-05  1.0000
  V   V9        1.0  0.002083333158218974  0.0062499998407970075  0.9996491399093768  1.0000
  V   V10       1.0  0.0004166666691683004  0.0062499998407970075  5.1314333084937125e-05  1.0000
  V   V11       1.0  0.007083332812993523  0.0062499998407970075  0.9996491395512579  1.0000
  V   V12       1.0  0.0037499998348921753  0.0062499998407970075  0.999850226945001  1.0000
  V   V13       1.0  0.006249999849901978  0.008749999458709825  0.999850227043246  1.0000
  V   V14       1.0  0.002916666496555575  0.008749999458709825  5.13144256706676e-05  1.0000
  V   V15       1.0  0.009583333203248381  0.008749999458709825  0.9996491396608214  1.0000
  V   V16       1.0  0.006249999849901978  0.003749999824876708  0.999850227043246  1.0000
  V   V17       1.0  0.002916666496555575  0.003749999824876708  5.13144256706676e-05  1.0000
  V   V18       1.0  0.009583333203248381  0.003749999824876708  0.9996491396608214  1.0000
  Ni  Ni1       1.0  0.007916666526575179  0.0062499998407970075  5.131407887032842e-05  1.0000
  Ni  Ni2       1.0  0.004583333173228776  0.0062499998407970075  0.9996491394643314  1.0000
  Ni  Ni3       1.0  0.0012499999136936371  0.0062499998407970075  0.9998502268495857  1.0000
  Ni  Ni4       1.0  0.007916666526575179  0.0012499999084582792  0.9997496830803886  1.0000
  Ni  Ni5       1.0  0.004583333173228776  0.0012499999084582792  0.9999507704628132  1.0000
  Ni  Ni6       1.0  0.0012499999136936371  0.0012499999084582792  0.9995485958511039  1.0000
  V   V19       1.0  0.008749999489666723  0.0012499999084582792  0.9993977806324499  1.0000
  V   V20       1.0  0.005416666511565377  0.0012499999084582792  0.9989956063008746  1.0000
  V   V21       1.0  0.002083333158218974  0.0012499999084582792  0.9991966934116541  1.0000
  V   V22       1.0  0.007083332812993523  0.0012499999084582792  0.9994983243236621  1.0000
  V   V23       1.0  0.0037499998348921753  0.0012499999084582792  0.9990961497204418  1.0000
  V   V24       1.0  0.0004166666691683004  0.0012499999084582792  0.9992972371085257  1.0000
  V   V25       1.0  0.008749999489666723  0.0062499998407970075  0.999246965133209  1.0000
  V   V26       1.0  0.005416666511565377  0.0062499998407970075  0.9994480525269521  1.0000
  V   V27       1.0  0.002083333158218974  0.0062499998407970075  0.9990458779124132  1.0000
  V   V28       1.0  0.0004166666691683004  0.0062499998407970075  0.9994480523361213  1.0000
  V   V29       1.0  0.007083332812993523  0.0062499998407970075  0.9990458780975846  1.0000
  V   V30       1.0  0.0037499998348921753  0.0062499998407970075  0.9992469652196827  1.0000
  V   V31       1.0  0.006249999849901978  0.008749999458709825  0.9992469653179277  1.0000
  V   V32       1.0  0.002916666496555575  0.008749999458709825  0.9994480524287072  1.0000
  V   V33       1.0  0.009583333203248381  0.008749999458709825  0.999045877935503  1.0000
  V   V34       1.0  0.006249999849901978  0.003749999824876708  0.9992469653179277  1.0000
  V   V35       1.0  0.002916666496555575  0.003749999824876708  0.9994480524287072  1.0000
  V   V36       1.0  0.009583333203248381  0.003749999824876708  0.999045877935503  1.0000
  Ni  Ni7       1.0  0.007916666526575179  0.0062499998407970075  0.9994480526251971  1.0000
  Ni  Ni8       1.0  0.004583333173228776  0.0062499998407970075  0.9990458780106583  1.0000
  Ni  Ni9       1.0  0.0012499999136936371  0.0062499998407970075  0.9992469653959125  1.0000
  Ni  Ni10      1.0  0.007916666526575179  0.0012499999084582792  0.9991464216267153  1.0000
  Ni  Ni11      1.0  0.004583333173228776  0.0012499999084582792  0.9993475090091399  1.0000
  Ni  Ni12      1.0  0.0012499999136936371  0.0012499999084582792  0.9989453343974307  1.0000
