data_image0
_chemical_formula_structural       HMn2Ga2Ni4Mn2Ga2Ni4Mn2Ga2Ni4Mn2Ga2Ni4
_chemical_formula_sum              "H1 Mn8 Ga8 Ni16"
_cell_length_a       7.627583026885986
_cell_length_b       6.555367469787598
_cell_length_c       100.51033020019531
_cell_angle_alpha    90.0
_cell_angle_beta     90.0
_cell_angle_gamma    90.0

_space_group_name_H-M_alt    "P 1"
_space_group_IT_number       1

loop_
  _space_group_symop_operation_xyz
  'x, y, z'

loop_
  _atom_site_type_symbol
  _atom_site_label
  _atom_site_symmetry_multiplicity
  _atom_site_fract_x
  _atom_site_fract_y
  _atom_site_fract_z
  _atom_site_occupancy
  H   H1        1.0  0.0037500014749595853  0.00500033228522327  0.00010230604637587872  1.0000
  Mn  Mn1       1.0  0.0037499980561790888  3.7859999806560366e-07  0.9994244007674344  1.0000
  Mn  Mn2       1.0  0.0012499982124661974  0.0050003788842592324  0.9996141221257977  1.0000
  Ga  Ga1       1.0  0.0037499980561790888  0.0050003788842592324  0.9994244007674344  1.0000
  Ga  Ga2       1.0  0.0012499982124661974  3.7859999806560366e-07  0.9996141221257977  1.0000
  Ni  Ni1       1.0  0.0012499982124661974  0.0075003785205594396  0.9994244007674344  1.0000
  Ni  Ni2       1.0  0.0037499980561790888  0.0075003785205594396  0.9996141221257977  1.0000
  Ni  Ni3       1.0  0.0037499980561790888  0.0025003786796780995  0.9996141221257977  1.0000
  Ni  Ni4       1.0  0.0012499982124661974  0.0025003786796780995  0.9994244007674344  1.0000
  Mn  Mn3       1.0  0.0037500012307609787  4.906000037780879e-07  0.9998081022579168  1.0000
  Mn  Mn4       1.0  0.001250000288154356  0.0050004146859575944  0.9999807321843482  1.0000
  Ga  Ga3       1.0  0.0037500017191581924  0.005000419232205005  0.999796141635779  1.0000
  Ga  Ga4       1.0  0.0012500028522397285  0.009999621206665714  0.0  1.0000
  Ni  Ni5       1.0  0.001249998945062018  0.007522992691743622  0.9998046508810097  1.0000
  Ni  Ni6       1.0  0.0037500017191581924  0.00742166536116626  0.9999797258292603  1.0000
  Ni  Ni7       1.0  0.0037500012307609787  0.0025789994934207433  0.9999797270153005  1.0000
  Ni  Ni8       1.0  0.0012499993113599284  0.0024776946099399734  0.9998046674855721  1.0000
  Mn  Mn5       1.0  0.008749998476200692  3.7859999806560366e-07  0.9994244007674344  1.0000
  Mn  Mn6       1.0  0.006249998144090587  0.0050003788842592324  0.9996141221257977  1.0000
  Ga  Ga5       1.0  0.008749998476200692  0.0050003788842592324  0.9994244007674344  1.0000
  Ga  Ga6       1.0  0.006249998144090587  3.7859999806560366e-07  0.9996141221257977  1.0000
  Ni  Ni9       1.0  0.006249998144090587  0.0075003785205594396  0.9994244007674344  1.0000
  Ni  Ni10      1.0  0.008749998476200692  0.0075003785205594396  0.9996141221257977  1.0000
  Ni  Ni11      1.0  0.008749998476200692  0.0025003786796780995  0.9996141221257977  1.0000
  Ni  Ni12      1.0  0.006249998144090587  0.0025003786796780995  0.9994244007674344  1.0000
  Mn  Mn7       1.0  0.008750001406583975  4.906000037780879e-07  0.9998081022579168  1.0000
  Mn  Mn8       1.0  0.006250000097679442  0.0050004146859575944  0.9999807321843482  1.0000
  Ga  Ga7       1.0  0.008750001406583975  0.005000419232205005  0.999796141635779  1.0000
  Ga  Ga8       1.0  0.006250002539665511  0.009999621206665714  0.0  1.0000
  Ni  Ni13      1.0  0.0062499986324878005  0.007522992691743622  0.9998046508810097  1.0000
  Ni  Ni14      1.0  0.008750001406583975  0.00742166536116626  0.9999797258292603  1.0000
  Ni  Ni15      1.0  0.008750001406583975  0.0025789994934207433  0.9999797270153005  1.0000
  Ni  Ni16      1.0  0.006249999120885015  0.0024776946099399734  0.9998046674855721  1.0000
