data_image0
_chemical_formula_structural       COSi2Ni4Si2Ni4Si2Ni4Si2Ni4Si2Ni4Si2Ni4
_chemical_formula_sum              "C1 O1 Si12 Ni24"
_cell_length_a       7.88298881125409
_cell_length_b       5.0242815017700195
_cell_length_c       34.52655029296875
_cell_angle_alpha    90.0
_cell_angle_beta     59.99999950275653
_cell_angle_gamma    90.0

_space_group_name_H-M_alt    "P 1"
_space_group_IT_number       1

loop_
  _space_group_symop_operation_xyz
  'x, y, z'

loop_
  _atom_site_type_symbol
  _atom_site_label
  _atom_site_symmetry_multiplicity
  _atom_site_fract_x
  _atom_site_fract_y
  _atom_site_fract_z
  _atom_site_occupancy
  C   C1        1.0  0.0028875007216081377  0.009999974078652083  0.9995415173380253  1.0000
  O   O1        1.0  0.0028875007216081377  0.009999974078652083  0.9998890762257714  1.0000
  Si  Si1       1.0  0.002515403245191846  0.002500051353334  0.9985698016354694  1.0000
  Si  Si2       1.0  0.004134397457379457  0.0074999942759494875  0.9989722185505436  1.0000
  Ni  Ni1       1.0  0.004177712771638099  0.0024999544077893778  0.9989522873675308  1.0000
  Ni  Ni2       1.0  0.002436936272563329  0.007500059524193669  0.9986057925225243  1.0000
  Ni  Ni3       1.0  0.0008373579930407465  0.005007928788683193  0.9981945839100652  1.0000
  Ni  Ni4       1.0  0.0008373931894449326  0.009992108699398919  0.9981945682392908  1.0000
  Si  Si3       1.0  0.0024889541023872283  0.0025000254023277916  0.9974403314041206  1.0000
  Si  Si4       1.0  0.004155620616263303  0.007500025417156938  0.9978208592640302  1.0000
  Ni  Ni5       1.0  0.004155620616263303  0.0025000254023277916  0.9978208592640302  1.0000
  Ni  Ni6       1.0  0.0024889541023872283  0.007500025417156938  0.9974403314041206  1.0000
  Ni  Ni7       1.0  0.0008222872474607251  0.005000025224378034  0.9970598035831447  1.0000
  Ni  Ni8       1.0  0.0008222872474607251  2.544999982260286e-08  0.9970598035831447  1.0000
  Si  Si5       1.0  0.0024889541023872283  0.0025000254023277916  0.9962987478421919  1.0000
  Si  Si6       1.0  0.004155620616263303  0.007500025417156938  0.9966792757021015  1.0000
  Ni  Ni9       1.0  0.004155620616263303  0.0025000254023277916  0.9966792757021015  1.0000
  Ni  Ni10      1.0  0.0024889541023872283  0.007500025417156938  0.9962987478421919  1.0000
  Ni  Ni11      1.0  0.0008222872474607251  0.005000025224378034  0.9959182195896304  1.0000
  Ni  Ni12      1.0  0.0008222872474607251  2.544999982260286e-08  0.9959182195896304  1.0000
  Si  Si7       1.0  0.007515403605341098  0.002500051353334  0.9985698019914141  1.0000
  Si  Si8       1.0  0.009134397817528709  0.0074999942759494875  0.9989722184749028  1.0000
  Ni  Ni13      1.0  0.009177712858947008  0.0024999544077893778  0.998952287323037  1.0000
  Ni  Ni14      1.0  0.007436936359872238  0.007500059524193669  0.9986057924780304  1.0000
  Ni  Ni15      1.0  0.0058373580121395706  0.005007928788683193  0.9981945838733581  1.0000
  Ni  Ni16      1.0  0.005837393481384099  0.009992108699398919  0.9981945686030221  1.0000
  Si  Si9       1.0  0.00748895446253648  0.0025000254023277916  0.9974403313284796  1.0000
  Si  Si10      1.0  0.00915562043073187  0.007500025417156938  0.9978208592506833  1.0000
  Ni  Ni17      1.0  0.00915562043073187  0.0025000254023277916  0.9978208592506833  1.0000
  Ni  Ni18      1.0  0.00748895446253648  0.007500025417156938  0.9974403313284796  1.0000
  Ni  Ni19      1.0  0.0058222874029797205  0.005000025224378034  0.9970598035308641  1.0000
  Ni  Ni20      1.0  0.0058222874029797205  2.544999982260286e-08  0.9970598035308641  1.0000
  Si  Si11      1.0  0.00748895446253648  0.0025000254023277916  0.996298747766551  1.0000
  Si  Si12      1.0  0.00915562043073187  0.007500025417156938  0.9966792756887546  1.0000
  Ni  Ni21      1.0  0.00915562043073187  0.0025000254023277916  0.9966792756887546  1.0000
  Ni  Ni22      1.0  0.00748895446253648  0.007500025417156938  0.996298747766551  1.0000
  Ni  Ni23      1.0  0.0058222874029797205  0.005000025224378034  0.9959182199689354  1.0000
  Ni  Ni24      1.0  0.0058222874029797205  2.544999982260286e-08  0.9959182199689354  1.0000
