data_image0
_chemical_formula_structural       COGa6Ni4Ga6Ni4
_chemical_formula_sum              "C1 O1 Ga12 Ni8"
_cell_length_a       7.1140971183776855
_cell_length_b       6.4458048939367645
_cell_length_c       37.141395568847656
_cell_angle_alpha    71.4214449519663
_cell_angle_beta     90.0
_cell_angle_gamma    56.50671058649122

_space_group_name_H-M_alt    "P 1"
_space_group_IT_number       1

loop_
  _space_group_symop_operation_xyz
  'x, y, z'

loop_
  _atom_site_type_symbol
  _atom_site_label
  _atom_site_symmetry_multiplicity
  _atom_site_fract_x
  _atom_site_fract_y
  _atom_site_fract_z
  _atom_site_occupancy
  C   C1        1.0  0.0015621698667928645  0.009535508960823938  0.00013590396288705746  1.0000
  O   O1        1.0  0.0015621698667928645  0.009535508960823938  0.0004589938531226005  1.0000
  Ga  Ga1       1.0  0.007023512303704868  0.0036662407320894627  0.9997530353546021  1.0000
  Ga  Ga2       1.0  0.0019449227675981157  0.0037728002411626872  0.9991888289723966  1.0000
  Ga  Ga3       1.0  0.00880591366198433  0.006569668553564283  0.9996140339082129  1.0000
  Ga  Ga4       1.0  0.00394809752930135  0.00652426442476731  0.9990559420174199  1.0000
  Ga  Ga5       1.0  0.0005837476338642389  0.009871672140648687  0.9994419950508981  1.0000
  Ga  Ga6       1.0  0.004924692190066331  0.0009415471893741173  0.9999479389402056  1.0000
  Ni  Ni1       1.0  0.004496175366945964  0.008744032664492304  0.9994965740669385  1.0000
  Ni  Ni2       1.0  0.009520599843717033  0.008712592403142578  0.9989349425868893  1.0000
  Ni  Ni3       1.0  0.0012085593729802258  0.0018634104699540826  0.999820577614019  1.0000
  Ni  Ni4       1.0  0.006494070764236251  0.001451355740274519  0.9993440917549851  1.0000
  Ga  Ga7       1.0  0.007010700496861261  0.003732392688747274  0.9986573821879694  1.0000
  Ga  Ga8       1.0  0.002010700245509711  0.003732392688747274  0.9981044511246312  1.0000
  Ga  Ga9       1.0  0.0089480977806529  0.00652426442476731  0.9985030109540817  1.0000
  Ga  Ga10      1.0  0.00394809752930135  0.00652426442476731  0.9979500798907435  1.0000
  Ga  Ga11      1.0  0.0004793992783608185  0.00012832825398561068  0.9983037310079536  1.0000
  Ga  Ga12      1.0  0.0054793990387913705  0.00012832825398561068  0.9988566620712918  1.0000
  Ni  Ni5       1.0  0.00452060063966361  0.008712592403142578  0.9983820115235511  1.0000
  Ni  Ni6       1.0  0.009520599843717033  0.008712592403142578  0.9978290804602129  1.0000
  Ni  Ni7       1.0  0.0014381977525338787  0.001544064522897281  0.998778381628866  1.0000
  Ni  Ni8       1.0  0.006438197480236365  0.001544064522897281  0.9982254505655278  1.0000
