data_image0
_chemical_formula_structural       HFe21Mo18
_chemical_formula_sum              "H1 Fe21 Mo18"
_cell_length_a       4.733795247051406
_cell_length_b       4.733795166015625
_cell_length_c       121.8017807006836
_cell_angle_alpha    90.0
_cell_angle_beta     90.0
_cell_angle_gamma    119.99999943372244

_space_group_name_H-M_alt    "P 1"
_space_group_IT_number       1

loop_
  _space_group_symop_operation_xyz
  'x, y, z'

loop_
  _atom_site_type_symbol
  _atom_site_label
  _atom_site_symmetry_multiplicity
  _atom_site_fract_x
  _atom_site_fract_y
  _atom_site_fract_z
  _atom_site_occupancy
  H   H1        1.0  0.002496178475725438  0.005839611014947718  0.00010116199053630665  1.0000
  Fe  Fe1       1.0  0.004163203705903967  0.004172539047361083  0.0  1.0000
  Fe  Fe2       1.0  0.004162867032949394  0.009173446621904792  4.453155482093954e-08  1.0000
  Fe  Fe3       1.0  0.004148757664621062  0.00914794725415098  0.9996311955352659  1.0000
  Fe  Fe4       1.0  0.00918457541427657  0.00418376529760635  0.9996311955352659  1.0000
  Fe  Fe5       1.0  0.0024940303114484898  0.00583849286325207  0.9980519120816117  1.0000
  Fe  Fe6       1.0  0.009162464951845644  0.004172847857534212  0.9999999848299099  1.0000
  Fe  Fe7       1.0  0.004148757664621062  0.0041837654320475435  0.9996311955352659  1.0000
  Fe  Fe8       1.0  0.007505969497724734  0.0008265532808767095  0.9993079336384545  1.0000
  Fe  Fe9       1.0  0.007505969497724734  0.00586237134859938  0.9993079336384545  1.0000
  Fe  Fe10      1.0  0.007482090707170736  0.005814613830512765  0.9989223691603022  1.0000
  Fe  Fe11      1.0  0.002517908874827754  0.0008504320770667153  0.9989223691603022  1.0000
  Fe  Fe12      1.0  0.005827363581172898  0.002505159430239287  0.9994695645868602  1.0000
  Fe  Fe13      1.0  0.0024701515208944923  0.0008265533509153108  0.9993079336384545  1.0000
  Fe  Fe14      1.0  0.007482090707170736  0.0008504320084093283  0.9989223691603022  1.0000
  Fe  Fe15      1.0  0.0008393030150696014  0.00749321992937525  0.9985991072634908  1.0000
  Fe  Fe16      1.0  0.0008393030150696014  0.0025290381072718138  0.9985991072634908  1.0000
  Fe  Fe17      1.0  0.0008154242245156038  0.002481280589185198  0.9982135427853385  1.0000
  Fe  Fe18      1.0  0.005851241917377429  0.007517098666216541  0.9982135427853385  1.0000
  Fe  Fe19      1.0  0.009160696623722573  0.009171826019389113  0.9987607382118965  1.0000
  Fe  Fe20      1.0  0.0058034847906189005  0.007493220102837275  0.9985991072634908  1.0000
  Fe  Fe21      1.0  0.0008154242245156038  0.007517098853646963  0.9982135427853385  1.0000
  Mo  Mo1       1.0  0.009160696623722573  0.009171826019389113  0.9995009847796118  1.0000
  Mo  Mo2       1.0  0.00582678792039902  0.00250422873026861  0.9998175341562311  1.0000
  Mo  Mo3       1.0  0.009159949673199878  0.009171681154955598  0.9999324764608746  1.0000
  Mo  Mo4       1.0  0.009160696623722573  0.009171826019389113  0.9980204918888601  1.0000
  Mo  Mo5       1.0  0.009160696623722573  0.009171826019389113  0.9997198833075172  1.0000
  Mo  Mo6       1.0  0.0024926368216351647  0.00583856930298688  0.9998207967043189  1.0000
  Mo  Mo7       1.0  0.0024940303114484898  0.00583849286325207  0.9987921584046481  1.0000
  Mo  Mo8       1.0  0.009160696623722573  0.009171826019389113  0.9991116341405841  1.0000
  Mo  Mo9       1.0  0.0024940303114484898  0.00583849286325207  0.9992192453768456  1.0000
  Mo  Mo10      1.0  0.0024940303114484898  0.00583849286325207  0.9994381443941087  1.0000
  Mo  Mo11      1.0  0.0024940303114484898  0.00583849286325207  0.9990110569325534  1.0000
  Mo  Mo12      1.0  0.005827363581172898  0.002505159430239287  0.9991186681688149  1.0000
  Mo  Mo13      1.0  0.005827363581172898  0.002505159430239287  0.9980833320296842  1.0000
  Mo  Mo14      1.0  0.0024940303114484898  0.00583849286325207  0.9984028082549782  1.0000
  Mo  Mo15      1.0  0.005827363581172898  0.002505159430239287  0.9985104194912395  1.0000
  Mo  Mo16      1.0  0.005827363581172898  0.002505159430239287  0.998729318019145  1.0000
  Mo  Mo17      1.0  0.005827363581172898  0.002505159430239287  0.9983022310469475  1.0000
  Mo  Mo18      1.0  0.009160696623722573  0.009171826019389113  0.9984098422832088  1.0000
