data_image0
_chemical_formula_structural       COPd24Sb12
_chemical_formula_sum              "C1 O1 Pd24 Sb12"
_cell_length_a       7.084582328796387
_cell_length_b       9.11072428423881
_cell_length_c       100.96588134765625
_cell_angle_alpha    95.74949945446762
_cell_angle_beta     90.0
_cell_angle_gamma    90.0

_space_group_name_H-M_alt    "P 1"
_space_group_IT_number       1

loop_
  _space_group_symop_operation_xyz
  'x, y, z'

loop_
  _atom_site_type_symbol
  _atom_site_label
  _atom_site_symmetry_multiplicity
  _atom_site_fract_x
  _atom_site_fract_y
  _atom_site_fract_z
  _atom_site_occupancy
  C   C1        1.0  0.0005253042607390261  0.006008116747041733  0.00013892477566771735  1.0000
  O   O1        1.0  0.0005253042607390261  0.006008116747041733  0.00025777704693522935  1.0000
  Pd  Pd1       1.0  0.009752778169276199  0.005015817841244839  0.9993679430779744  1.0000
  Pd  Pd2       1.0  0.004752777874811054  0.003564589337046939  0.999394124739771  1.0000
  Pd  Pd3       1.0  0.008720935490864312  0.009874199295903266  0.9990998835100378  1.0000
  Pd  Pd4       1.0  0.0037209354593144743  0.007595096614200101  0.9993214104542216  1.0000
  Pd  Pd5       1.0  0.00024722194312009444  0.006941810568615502  0.9991527868011801  1.0000
  Pd  Pd6       1.0  0.005247222188288619  0.000527485980527637  0.9992685073105386  1.0000
  Pd  Pd7       1.0  0.0015208999886740292  0.0020921436849673674  0.999240279458655  1.0000
  Pd  Pd8       1.0  0.00652090015168152  0.005377152710066503  0.9991810146516706  1.0000
  Pd  Pd9       1.0  0.009752778169276199  0.006126929240939828  0.9997087167909665  1.0000
  Pd  Pd10      1.0  0.004752777874811054  0.0046757007367419275  0.9997348984527632  1.0000
  Pd  Pd11      1.0  0.008720935490864312  0.0009853105640916767  0.9994406573635237  1.0000
  Pd  Pd12      1.0  0.0037209354593144743  0.00870620801389509  0.999662184462386  1.0000
  Pd  Pd13      1.0  0.00024722194312009444  0.008052921146394384  0.9994935605067424  1.0000
  Pd  Pd14      1.0  0.005247222188288619  0.0016385970206343288  0.9996092813154523  1.0000
  Pd  Pd15      1.0  0.0015208999886740292  0.0032032548791833294  0.9995810531697896  1.0000
  Pd  Pd16      1.0  0.00652090015168152  0.006488263698803437  0.9995217886561201  1.0000
  Pd  Pd17      1.0  0.00948019809393889  0.0073200949914089385  2.4139917113676164e-05  1.0000
  Pd  Pd18      1.0  0.004814408903959671  0.0056645862249437885  4.566548672753867e-05  1.0000
  Pd  Pd19      1.0  0.008811175386402212  0.0020841795233633533  0.9997764308802124  1.0000
  Pd  Pd20      1.0  0.003960346402234947  0.009738997383860755  0.9999620291126603  1.0000
  Pd  Pd21      1.0  0.00030579584235700737  0.009226360910280111  0.999825103543624  1.0000
  Pd  Pd22      1.0  0.005543170702084328  0.0025916334049272674  0.9999443262957827  1.0000
  Pd  Pd23      1.0  0.0015704100962658724  0.00431330806188973  0.9999088787380844  1.0000
  Pd  Pd24      1.0  0.006483989997338708  0.007489305326237309  0.9998411597492818  1.0000
  Sb  Sb1       1.0  0.007811493560198704  0.0026593155251641515  0.9992300469707649  1.0000
  Sb  Sb2       1.0  0.0028114935286488673  0.004809980869869718  0.9991912468443885  1.0000
  Sb  Sb3       1.0  0.0025004749722798924  0.00929338570310991  0.9991103619402913  1.0000
  Sb  Sb4       1.0  0.007500474740914421  0.008175911028909565  0.9993109320313979  1.0000
  Sb  Sb5       1.0  0.007811493560198704  0.0037704267193801135  0.9995708209770717  1.0000
  Sb  Sb6       1.0  0.0028114935286488673  0.005921091858606653  0.999532020848838  1.0000
  Sb  Sb7       1.0  0.0025004749722798924  0.0004044966887646593  0.9994511357912234  1.0000
  Sb  Sb8       1.0  0.007500474740914421  0.009287022428604554  0.9996517060395622  1.0000
  Sb  Sb9       1.0  0.007897783416140298  0.004817929620546714  0.9999172770406496  1.0000
  Sb  Sb10      1.0  0.0027341535727271027  0.007059574708518301  0.9998859855895801  1.0000
  Sb  Sb11      1.0  0.0025744277902810483  0.001624930507815015  0.9998009984580137  1.0000
  Sb  Sb12      1.0  0.007619648466163027  0.00012580050169989346  1.1372054436178087e-06  1.0000
