data_image0
_chemical_formula_structural       COAl18Cu12
_chemical_formula_sum              "C1 O1 Al18 Cu12"
_cell_length_a       6.5805642416183066
_cell_length_b       8.846079892319823
_cell_length_c       101.81192779541016
_cell_angle_alpha    89.84411977139986
_cell_angle_beta     85.42192125246854
_cell_angle_gamma    89.6232177867331

_space_group_name_H-M_alt    "P 1"
_space_group_IT_number       1

loop_
  _space_group_symop_operation_xyz
  'x, y, z'

loop_
  _atom_site_type_symbol
  _atom_site_label
  _atom_site_symmetry_multiplicity
  _atom_site_fract_x
  _atom_site_fract_y
  _atom_site_fract_z
  _atom_site_occupancy
  C   C1        1.0  0.008676019093962315  0.0029167612307725976  0.00012413056223158311  1.0000
  O   O1        1.0  0.008676019093962315  0.0029167612307725976  0.00024199518358330695  1.0000
  Al  Al1       1.0  0.00039184980790375734  0.0002903361186446452  0.999554836924448  1.0000
  Al  Al2       1.0  0.00872518296952903  0.00695700283023221  0.999294455246426  1.0000
  Al  Al3       1.0  0.004558516566190438  0.0036236694744384277  0.9994246460845214  1.0000
  Al  Al4       1.0  0.0027231510133978805  0.00800578339495043  0.9993836835901496  1.0000
  Al  Al5       1.0  0.008556484250215414  0.004672449618023228  0.9995138744828905  1.0000
  Al  Al6       1.0  0.006889817755104368  0.0013391163675128001  0.9992534928923681  1.0000
  Al  Al7       1.0  0.006393881776086391  0.009241556463574614  0.9994656084384783  1.0000
  Al  Al8       1.0  0.0022272150924122955  0.00590822268664741  0.9995957992781195  1.0000
  Al  Al9       1.0  0.0005605484207329484  0.002574889330853628  0.9993354176885328  1.0000
  Al  Al10      1.0  0.007578262945264549  0.0003240323197092112  0.9999567304831898  1.0000
  Al  Al11      1.0  0.006225183060395741  0.00695700283023221  0.9996850273823044  1.0000
  Al  Al12      1.0  0.0022822395185161217  0.0035399211977837682  0.9998402819280741  1.0000
  Al  Al13      1.0  0.00025864060004780043  0.008080494148388174  0.9997818117466596  1.0000
  Al  Al14      1.0  0.005987433686040167  0.0046051697638008855  0.99990983976807  1.0000
  Al  Al15      1.0  0.004389817845971079  0.0013391163675128001  0.9996440653209657  1.0000
  Al  Al16      1.0  0.003953690749207419  0.00924256465698474  0.9998557623068511  1.0000
  Al  Al17      1.0  0.009665362025610464  0.005697252530277404  0.9999477958807921  1.0000
  Al  Al18      1.0  0.008065042867366949  0.0025411173784149403  0.9997222483565881  1.0000
  Cu  Cu1       1.0  0.005574692764624998  0.006376330592942919  0.9994473256049378  1.0000
  Cu  Cu2       1.0  0.0014080260755164507  0.003042997447715848  0.9995775161517383  1.0000
  Cu  Cu3       1.0  0.009741359167963589  0.009709663948736702  0.9993171347668424  1.0000
  Cu  Cu4       1.0  0.0035423400842502792  0.000871008303292258  0.9994019665655801  1.0000
  Cu  Cu5       1.0  0.009375673833216715  0.0075376750675215  0.999532157313582  1.0000
  Cu  Cu6       1.0  0.00770900677109447  0.004204341711727718  0.9992717760187291  1.0000
  Cu  Cu7       1.0  0.003173527142550044  0.006375110990555399  0.9998424972698496  1.0000
  Cu  Cu8       1.0  0.008886739372107504  0.002921074479271557  0.9999534630925975  1.0000
  Cu  Cu9       1.0  0.0073219717880303676  0.009684893723174137  0.9997038015186464  1.0000
  Cu  Cu10      1.0  0.0009929332252796685  0.0009073271127367564  0.999803972153651  1.0000
  Cu  Cu11      1.0  0.006762436017094976  0.007535540763343339  0.9999200629108432  1.0000
  Cu  Cu12      1.0  0.005209006861961182  0.004204341711727718  0.9996623481546074  1.0000
