data_image0
_chemical_formula_structural       HAl8Pt24
_chemical_formula_sum              "H1 Al8 Pt24"
_cell_length_a       5.531562328338623
_cell_length_b       9.735938947066556
_cell_length_c       108.94375610351562
_cell_angle_alpha    69.24390867577723
_cell_angle_beta     90.0
_cell_angle_gamma    90.0

_space_group_name_H-M_alt    "P 1"
_space_group_IT_number       1

loop_
  _space_group_symop_operation_xyz
  'x, y, z'

loop_
  _atom_site_type_symbol
  _atom_site_label
  _atom_site_symmetry_multiplicity
  _atom_site_fract_x
  _atom_site_fract_y
  _atom_site_fract_z
  _atom_site_occupancy
  H   H1        1.0  0.002222899415474831  0.0015262630656437666  0.9999130737056394  1.0000
  Al  Al1       1.0  5.998949920963518e-06  0.008706088213998504  0.9991250637283776  1.0000
  Al  Al2       1.0  0.009961565889420368  0.0036797962947075465  0.9995747016911792  1.0000
  Al  Al3       1.0  0.005005998663358139  0.0037939108857827607  0.9991329122766761  1.0000
  Al  Al4       1.0  0.005002428984476308  0.008749398555679896  0.999585620884469  1.0000
  Al  Al5       1.0  0.004840342800266746  0.0012071592574212854  0.9997946377175453  1.0000
  Al  Al6       1.0  0.005005998663358139  0.006206088721394518  0.9993484804528366  1.0000
  Al  Al7       1.0  5.998949920963518e-06  0.001293911188583608  0.9993563290076146  1.0000
  Al  Al8       1.0  0.009909939059234119  0.006385138544907127  0.9997977782628011  1.0000
  Pt  Pt1       1.0  0.00723950272905705  0.008852951535051676  0.9997937794804662  1.0000
  Pt  Pt2       1.0  0.0072322138629994995  0.0038868924328830956  0.999340170841114  1.0000
  Pt  Pt3       1.0  0.009994000434204411  0.0013520495649828818  0.9997920294940403  1.0000
  Pt  Pt4       1.0  5.998949920963518e-06  0.006264802623998158  0.9993537274057113  1.0000
  Pt  Pt5       1.0  0.0019596939364802135  0.009023151799217099  0.9993279938566749  1.0000
  Pt  Pt6       1.0  0.0018343544664501017  0.0040422693680194745  0.9997801777532203  1.0000
  Pt  Pt7       1.0  0.0030523037471702793  0.0015231524007268894  0.9991045772502881  1.0000
  Pt  Pt8       1.0  0.0029709264501517904  0.006511256325231443  0.99955042283296  1.0000
  Pt  Pt9       1.0  0.002779783968812365  0.006113107174294184  0.9991412218883986  1.0000
  Pt  Pt10      1.0  0.0026646991177642185  0.0011088583382802806  0.9995824824406719  1.0000
  Pt  Pt11      1.0  0.006959693916276389  0.00847684751334314  0.999376815469505  1.0000
  Pt  Pt12      1.0  0.006827007999291756  0.0034771394624624366  0.999812133898727  1.0000
  Pt  Pt13      1.0  0.008052303895331651  0.0009768475010674303  0.9991533988825572  1.0000
  Pt  Pt14      1.0  0.00801412607698771  0.005968458800517394  0.9995970674821097  1.0000
  Pt  Pt15      1.0  0.007779783948608542  0.006386892334677415  0.9991167546508096  1.0000
  Pt  Pt16      1.0  0.007648657093337225  0.0013410297624032726  0.9995641050663383  1.0000
  Pt  Pt17      1.0  0.005005998663358139  0.008764802934982812  0.9991303112024476  1.0000
  Pt  Pt18      1.0  0.0049166334479890435  0.003756947904557906  0.9995742749084222  1.0000
  Pt  Pt19      1.0  5.998949920963518e-06  0.0037351969831791215  0.9991276653238014  1.0000
  Pt  Pt20      1.0  0.009959074084522195  0.008730984172282198  0.9995723155939797  1.0000
  Pt  Pt21      1.0  0.0022923775022785603  0.008641355939966632  0.9998049578919118  1.0000
  Pt  Pt22      1.0  0.0022322137148381273  0.0036131072724998638  0.999364638078703  1.0000
  Pt  Pt23      1.0  0.005005998663358139  0.0012351969790872182  0.9993510820644596  1.0000
  Pt  Pt24      1.0  0.0050252320298681255  0.006296506691054148  0.9997935614462575  1.0000
