data_image0
_chemical_formula_structural       V12Sb4H
_chemical_formula_sum              "V12 Sb4 H1"
_cell_length_a       4.950314044952393
_cell_length_b       7.000801086425781
_cell_length_c       98.00320434570312
_cell_angle_alpha    90.0
_cell_angle_beta     90.0
_cell_angle_gamma    90.0

_space_group_name_H-M_alt    "P 1"
_space_group_IT_number       1

loop_
  _space_group_symop_operation_xyz
  'x, y, z'

loop_
  _atom_site_type_symbol
  _atom_site_label
  _atom_site_symmetry_multiplicity
  _atom_site_fract_x
  _atom_site_fract_y
  _atom_site_fract_z
  _atom_site_occupancy
  V   V1        1.0  0.0012499941603194354  0.006254595843654541  0.9994054570262714  1.0000
  V   V2        1.0  0.0012499948187885714  0.0013574102906728927  0.9997658246568675  1.0000
  V   V3        1.0  0.0012500001806086771  0.0038270311883588214  0.9999384504854083  1.0000
  V   V4        1.0  0.0012499941603194354  0.008754595801084666  0.9995840431244043  1.0000
  V   V5        1.0  0.006249994130217989  0.006254595843654541  0.9995840431244043  1.0000
  V   V6        1.0  0.006249988862464902  0.0011820818723919991  0.9999384541345528  1.0000
  V   V7        1.0  0.006249994130217989  0.008754595801084666  0.9994054570262714  1.0000
  V   V8        1.0  0.006249986981124515  0.0036517978871413365  0.9997658137094336  1.0000
  V   V9        1.0  0.008749993738899188  0.0025045956414476373  0.9994947500753378  1.0000
  V   V10       1.0  0.008750005779477672  0.007504619767924028  0.9998469439260173  1.0000
  V   V11       1.0  0.0037499941452687124  0.0025045956414476373  0.9994947500753378  1.0000
  V   V12       1.0  0.003749982104690229  0.00750462030004746  0.9998469439260173  1.0000
  Sb  Sb1       1.0  0.006249993001413756  0.005013762223173214  3.195069415878399e-05  1.0000
  Sb  Sb2       1.0  0.006249994130217989  4.59564972049376e-06  0.9996733361734708  1.0000
  Sb  Sb3       1.0  0.0012499941603194354  0.005004595332816046  0.9996733361734708  1.0000
  Sb  Sb4       1.0  0.0012499944425204937  0.009995404411764705  3.1958600638855264e-05  1.0000
  H   H1        1.0  0.006249993753949912  0.00750462030004746  0.0  1.0000
