data_image0
_chemical_formula_structural       COV3Si6V3Si6
_chemical_formula_sum              "C1 O1 V6 Si12"
_cell_length_a       4.582751862097735
_cell_length_b       6.397009372711182
_cell_length_c       106.66201782226562
_cell_angle_alpha    90.0
_cell_angle_beta     119.99999919767241
_cell_angle_gamma    90.0

_space_group_name_H-M_alt    "P 1"
_space_group_IT_number       1

loop_
  _space_group_symop_operation_xyz
  'x, y, z'

loop_
  _atom_site_type_symbol
  _atom_site_label
  _atom_site_symmetry_multiplicity
  _atom_site_fract_x
  _atom_site_fract_y
  _atom_site_fract_z
  _atom_site_occupancy
  C   C1        1.0  0.0076746744375375915  0.00014031984788121684  0.00020140903750227  1.0000
  O   O1        1.0  0.0076746744375375915  0.00014031984788121684  0.0003139136099738523  1.0000
  V   V1        1.0  0.005700348176390048  0.003377134056529085  0.9995830760017026  1.0000
  V   V2        1.0  0.005700348176390048  0.00671046733550987  0.9993682501953454  1.0000
  V   V3        1.0  0.0007003480684454318  4.380075025070346e-05  0.9993682501706738  1.0000
  Si  Si1       1.0  0.007443510573961684  4.380075025070346e-05  0.9995131107330839  1.0000
  Si  Si2       1.0  0.009071929253151518  0.00671046733550987  0.9996530413333713  1.0000
  Si  Si3       1.0  0.009071929253151518  0.003377134056529085  0.9994431454185251  1.0000
  Si  Si4       1.0  0.003957185309493997  4.380075025070346e-05  0.9996530409808301  1.0000
  Si  Si5       1.0  0.002328766630304162  0.00671046733550987  0.9995131106599516  1.0000
  Si  Si6       1.0  0.002328766630304162  0.003377134056529085  0.9992933549620834  1.0000
  V   V4        1.0  0.005587049977208105  0.0033776867054760014  2.7837224569460632e-06  1.0000
  V   V5        1.0  0.005700348176390048  0.00671046733550987  0.9997979018080598  1.0000
  V   V6        1.0  0.0007003480684454318  4.380075025070346e-05  0.9997979020627972  1.0000
  Si  Si7       1.0  0.007375710560919722  0.009956199641742788  0.9999502617213173  1.0000
  Si  Si8       1.0  0.009299652030112696  0.0064302644194950305  7.75564739947986e-05  1.0000
  Si  Si9       1.0  0.00927592204901423  0.0033774659953064745  0.9998903216032025  1.0000
  Si  Si10      1.0  0.0036094485356267247  0.0003244404551123361  7.754028535329304e-05  1.0000
  Si  Si11      1.0  0.002570907053310688  0.0067993290932630845  0.9999502915514632  1.0000
  Si  Si12      1.0  0.002328766630304162  0.003377134056529085  0.9997230065747978  1.0000
