data_image0
_chemical_formula_structural       HVPtVPtVPtVPtVPtVPtVPtVPtVPtVPtVPtVPt
_chemical_formula_sum              "H1 V12 Pt12"
_cell_length_a       7.852696895599365
_cell_length_b       5.420310974121094
_cell_length_c       99.81170654296875
_cell_angle_alpha    90.0
_cell_angle_beta     90.0
_cell_angle_gamma    90.0

_space_group_name_H-M_alt    "P 1"
_space_group_IT_number       1

loop_
  _space_group_symop_operation_xyz
  'x, y, z'

loop_
  _atom_site_type_symbol
  _atom_site_label
  _atom_site_symmetry_multiplicity
  _atom_site_fract_x
  _atom_site_fract_y
  _atom_site_fract_z
  _atom_site_occupancy
  H   H1        1.0  0.0037499999905120747  0.0012499999587629901  0.999987673795836  1.0000
  V   V1        1.0  0.001250000075903407  0.00374999987628897  0.0  1.0000
  Pt  Pt1       1.0  0.0037499999905120747  0.0012499999587629901  0.9998642361859565  1.0000
  V   V2        1.0  0.001250000075903407  0.00374999987628897  0.999728472969084  1.0000
  Pt  Pt2       1.0  0.0037499999905120747  0.0012499999587629901  0.9995927097522114  1.0000
  V   V3        1.0  0.001250000075903407  0.00374999987628897  0.9994569462367533  1.0000
  Pt  Pt3       1.0  0.0037499999905120747  0.0012499999587629901  0.9993211830198807  1.0000
  V   V4        1.0  0.001250000075903407  0.00874999936769918  0.0  1.0000
  Pt  Pt4       1.0  0.0037499999905120747  0.0062499994501732  0.9998642361859565  1.0000
  V   V5        1.0  0.001250000075903407  0.00874999936769918  0.999728472969084  1.0000
  Pt  Pt5       1.0  0.0037499999905120747  0.0062499994501732  0.9995927097522114  1.0000
  V   V6        1.0  0.001250000075903407  0.00874999936769918  0.9994569462367533  1.0000
  Pt  Pt6       1.0  0.0037499999905120747  0.0062499994501732  0.9993211830198807  1.0000
  V   V7        1.0  0.006250000379517035  0.00374999987628897  0.0  1.0000
  Pt  Pt7       1.0  0.008750000531323849  0.0012499999587629901  0.9998642361859565  1.0000
  V   V8        1.0  0.006250000379517035  0.00374999987628897  0.999728472969084  1.0000
  Pt  Pt8       1.0  0.008750000531323849  0.0012499999587629901  0.9995927097522114  1.0000
  V   V9        1.0  0.006250000379517035  0.00374999987628897  0.9994569462367533  1.0000
  Pt  Pt9       1.0  0.008750000531323849  0.0012499999587629901  0.9993211830198807  1.0000
  V   V10       1.0  0.006250000379517035  0.00874999936769918  0.0  1.0000
  Pt  Pt10      1.0  0.008750000531323849  0.0062499994501732  0.9998642361859565  1.0000
  V   V11       1.0  0.006250000379517035  0.00874999936769918  0.999728472969084  1.0000
  Pt  Pt11      1.0  0.008750000531323849  0.0062499994501732  0.9995927097522114  1.0000
  V   V12       1.0  0.006250000379517035  0.00874999936769918  0.9994569462367533  1.0000
  Pt  Pt12      1.0  0.008750000531323849  0.0062499994501732  0.9993211830198807  1.0000
