data_image0
_chemical_formula_structural       HGa24Ir12
_chemical_formula_sum              "H1 Ga24 Ir12"
_cell_length_a       6.893232013137543
_cell_length_b       11.749040515153633
_cell_length_c       41.23222732543945
_cell_angle_alpha    86.50649448435846
_cell_angle_beta     87.89303958708803
_cell_angle_gamma    95.54774304992982

_space_group_name_H-M_alt    "P 1"
_space_group_IT_number       1

loop_
  _space_group_symop_operation_xyz
  'x, y, z'

loop_
  _atom_site_type_symbol
  _atom_site_label
  _atom_site_symmetry_multiplicity
  _atom_site_fract_x
  _atom_site_fract_y
  _atom_site_fract_z
  _atom_site_occupancy
  H   H1        1.0  0.007542848076985017  0.005755561291015919  1.9290311953374845e-05  1.0000
  Ga  Ga1       1.0  0.0062340822635964695  0.0011789887695673636  0.9990276060359738  1.0000
  Ga  Ga2       1.0  0.0037659172836359144  0.009179655815852153  0.9989454649803852  1.0000
  Ga  Ga3       1.0  0.00340555020423283  0.006657086231653393  0.998694036673441  1.0000
  Ga  Ga4       1.0  0.005344449529730348  0.004951558082415739  0.998406907971798  1.0000
  Ga  Ga5       1.0  0.0077437016949079675  0.0011817980441370746  0.9984101939939475  1.0000
  Ga  Ga6       1.0  0.0010062979575570028  0.00042684692436533887  0.9986907506982527  1.0000
  Ga  Ga7       1.0  0.00030475786183105054  0.0026996394372706353  0.9989723602507166  1.0000
  Ga  Ga8       1.0  0.009695242162021282  0.007659005068339945  0.9990007107640987  1.0000
  Ga  Ga9       1.0  0.003929913607591792  0.002941316539966681  0.9988037419025481  1.0000
  Ga  Ga10      1.0  0.004820086126371386  0.008667327774102451  0.9982972027426911  1.0000
  Ga  Ga11      1.0  0.008324597213474364  0.005248066797704853  0.9988154854501846  1.0000
  Ga  Ga12      1.0  0.0016754024554826636  0.005110577707905727  0.9991575855668121  1.0000
  Ga  Ga13      1.0  0.009401778245707516  6.820194887964342e-05  0.9999129072342924  1.0000
  Ga  Ga14      1.0  0.005673355818767436  0.008417840568866863  0.9997888071128237  1.0000
  Ga  Ga15      1.0  0.004684356198754242  0.005380541651632791  0.9995702285467256  1.0000
  Ga  Ga16      1.0  0.006594449735120619  0.003701558273957187  0.9992790343418936  1.0000
  Ga  Ga17      1.0  0.008993701508602708  0.009931797581245242  0.9992823206813863  1.0000
  Ga  Ga18      1.0  0.002495670433129269  0.009156531655314472  0.9995842080316963  1.0000
  Ga  Ga19      1.0  0.0015500076865185251  0.00207561751175094  0.9999544331887799  1.0000
  Ga  Ga20      1.0  0.0006183276176651045  0.006323051992827871  0.9998683959099207  1.0000
  Ga  Ga21      1.0  0.005093392644021008  0.0016690953696617142  0.9996527107906062  1.0000
  Ga  Ga22      1.0  0.006070086115259505  0.007417328284879646  0.9991693291085744  1.0000
  Ga  Ga23      1.0  0.00947919604623769  0.003955141912292609  0.9996869543994884  1.0000
  Ga  Ga24      1.0  0.002438535489042921  0.00435037045137585  8.937807760269944e-05  1.0000
  Ir  Ir1       1.0  0.00127298845249208  0.002328572255665643  0.9983438727524234  1.0000
  Ir  Ir2       1.0  0.00747701155186752  0.009280072058403489  0.9987570718911537  1.0000
  Ir  Ir3       1.0  0.0071590449935782915  0.0070543093556811294  0.9985352262542576  1.0000
  Ir  Ir4       1.0  0.001590954591481839  0.00455433527762375  0.9985657183863537  1.0000
  Ir  Ir5       1.0  0.0012746731293863092  0.008430966904293838  0.9984621122141374  1.0000
  Ir  Ir6       1.0  0.007475326503178211  0.0031776774097752947  0.9986388324317249  1.0000
  Ir  Ir7       1.0  0.002522988360538795  0.0010785722875892173  0.9992159994885141  1.0000
  Ir  Ir8       1.0  0.009023787273732507  0.008085632358511652  0.9996289468030983  1.0000
  Ir  Ir9       1.0  0.008331241629798213  0.005799224441015653  0.9994020095852378  1.0000
  Ir  Ir10      1.0  0.00285872745749031  0.0033096472327521775  0.9994108248150293  1.0000
  Ir  Ir11      1.0  0.0025591868674118947  0.007152498609664476  0.9993288367240174  1.0000
  Ir  Ir12      1.0  0.008664639756007989  0.00191646444571889  0.99951047882087  1.0000
