data_image0
_chemical_formula_structural       COAs6Ga6
_chemical_formula_sum              "C1 O1 As6 Ga6"
_cell_length_a       7.125661812436731
_cell_length_b       5.818078517913818
_cell_length_c       101.33131408691406
_cell_angle_alpha    90.0
_cell_angle_beta     85.6522471685671
_cell_angle_gamma    114.09484260148942

_space_group_name_H-M_alt    "P 1"
_space_group_IT_number       1

loop_
  _space_group_symop_operation_xyz
  'x, y, z'

loop_
  _atom_site_type_symbol
  _atom_site_label
  _atom_site_symmetry_multiplicity
  _atom_site_fract_x
  _atom_site_fract_y
  _atom_site_fract_z
  _atom_site_occupancy
  C   C1        1.0  0.0013383984572144976  0.005097045260761769  6.156035734934341e-05  1.0000
  O   O1        1.0  0.0013383984572144976  0.005097045260761769  0.00017998400976938788  1.0000
  As  As1       1.0  0.002330015566597273  0.008969434935890615  0.9997364001525588  1.0000
  As  As2       1.0  0.0049593584695905015  0.006002780486742261  0.9999735617699785  1.0000
  As  As3       1.0  0.0006250000057468292  0.0030208330587453047  0.999476202753869  1.0000
  As  As4       1.0  0.007966842592894322  0.001211560668523059  0.999877283410341  1.0000
  As  As5       1.0  0.004791666567054959  0.00010416669156197101  0.999347370708006  1.0000
  As  As6       1.0  0.006458333249046504  0.005937500000542962  0.9996050346948947  1.0000
  Ga  Ga1       1.0  0.003541666555561301  0.0069791663976821045  0.9995406187247647  1.0000
  Ga  Ga2       1.0  0.005399025962096452  0.002901173472052789  0.9998080781212015  1.0000
  Ga  Ga3       1.0  0.0018749998735697567  0.001145833228765785  0.9992829547378761  1.0000
  Ga  Ga4       1.0  0.009374999655190246  0.009895832947496576  0.9996694503724487  1.0000
  Ga  Ga5       1.0  0.0015602920107377618  0.005207992037523401  0.9998900384876876  1.0000
  Ga  Ga6       1.0  0.0077083329731987005  0.004062499818598735  0.9994117866796678  1.0000
