data_image0
_chemical_formula_structural       HAs12Mo6
_chemical_formula_sum              "H1 As12 Mo6"
_cell_length_a       4.885292089024452
_cell_length_b       7.057998569362438
_cell_length_c       100.37995147705078
_cell_angle_alpha    92.0348524423207
_cell_angle_beta     93.42768260980961
_cell_angle_gamma    91.36805390812432

_space_group_name_H-M_alt    "P 1"
_space_group_IT_number       1

loop_
  _space_group_symop_operation_xyz
  'x, y, z'

loop_
  _atom_site_type_symbol
  _atom_site_label
  _atom_site_symmetry_multiplicity
  _atom_site_fract_x
  _atom_site_fract_y
  _atom_site_fract_z
  _atom_site_occupancy
  H   H1        1.0  0.009098619436631076  0.00397086424336483  0.00011429358277937848  1.0000
  As  As1       1.0  0.008660187415235039  0.008830262629081717  6.040897809985441e-05  1.0000
  As  As2       1.0  0.006605777237966551  0.009069920791355414  0.9998210106939484  1.0000
  As  As3       1.0  0.0018269310780367112  0.005330576148999908  0.9998541908465833  1.0000
  As  As4       1.0  0.004804344339447122  0.0028658011545079983  2.1134493653330925e-05  1.0000
  As  As5       1.0  0.0018513456631895258  0.00993844784639399  0.9997488552377592  1.0000
  As  As6       1.0  0.00859927695007825  6.155149765921146e-05  0.9995151211930627  1.0000
  As  As7       1.0  0.0038312619967919783  0.00635909703203511  0.999542351135413  1.0000
  As  As8       1.0  0.006619360914925506  0.0036409026298377706  0.9997216250001757  1.0000
  As  As9       1.0  0.0038513454678970145  0.0009384484412863897  0.9994462054834005  1.0000
  As  As10      1.0  0.0005992773179235116  0.0010615514778800957  0.9992124716406967  1.0000
  As  As11      1.0  0.005831261808193887  0.007359096892557673  0.9992397017295765  1.0000
  As  As12      1.0  0.008619360726327414  0.004640902490360334  0.9994189752974441  1.0000
  Mo  Mo1       1.0  0.00940072265233753  0.0020280963676068673  0.999918907430148  1.0000
  Mo  Mo2       1.0  0.007040254712690904  0.005908243614401726  0.9999311110862259  1.0000
  Mo  Mo3       1.0  0.0013738730473801945  0.0030333859363328272  0.9996174244771339  1.0000
  Mo  Mo4       1.0  0.009076750150806848  0.0069666137255400525  0.9996465516592884  1.0000
  Mo  Mo5       1.0  0.003373872964229483  0.0040333860610172025  0.9993147747753687  1.0000
  Mo  Mo6       1.0  0.0010767498934560625  0.007966613586062616  0.9993439021048043  1.0000
