data_image0
_chemical_formula_structural       HIn6Rh12Ti6
_chemical_formula_sum              "H1 In6 Rh12 Ti6"
_cell_length_a       7.802956651950332
_cell_length_b       6.371087551116943
_cell_length_c       104.30935668945312
_cell_angle_alpha    90.0
_cell_angle_beta     85.65224672027543
_cell_angle_gamma    114.09484304949984

_space_group_name_H-M_alt    "P 1"
_space_group_IT_number       1

loop_
  _space_group_symop_operation_xyz
  'x, y, z'

loop_
  _atom_site_type_symbol
  _atom_site_label
  _atom_site_symmetry_multiplicity
  _atom_site_fract_x
  _atom_site_fract_y
  _atom_site_fract_z
  _atom_site_occupancy
  H   H1        1.0  0.0005621367965388285  0.00045756804610071065  9.492238320301315e-05  1.0000
  In  In1       1.0  0.003604529813274442  0.0019791666029893716  0.9995227560121958  1.0000
  In  In2       1.0  0.005467337289316498  0.007910480993889852  0.9998019988633581  1.0000
  In  In3       1.0  0.0019378631431091048  0.006145833382657632  0.9992486564828688  1.0000
  In  In4       1.0  0.009437863552453558  0.004895833527396252  0.9996598056174266  1.0000
  In  In5       1.0  0.0007647701072010566  0.0005588846466145016  0.9999762317723085  1.0000
  In  In6       1.0  0.00777119661988793  0.009062500121047045  0.9993857060895878  1.0000
  Rh  Rh1       1.0  0.0023821503932192206  0.00891385838803513  0.999728132672782  1.0000
  Rh  Rh2       1.0  0.0039139435765147826  0.0045049584461501055  0.9999778039406948  1.0000
  Rh  Rh3       1.0  0.0006878632060851745  0.003020833402451305  0.9994542309223814  1.0000
  Rh  Rh4       1.0  0.003912034089601479  0.009759924027394064  0.9999778484833254  1.0000
  Rh  Rh5       1.0  0.0006878632060851745  0.00802083313348097  0.9994542309223814  1.0000
  Rh  Rh6       1.0  0.0023827119298406954  0.0038243597595444437  0.9997282192015249  1.0000
  Rh  Rh7       1.0  0.00838208076477736  0.0018927964789310482  0.9998571953020954  1.0000
  Rh  Rh8       1.0  0.004854529750298373  0.00010416665116917977  0.9993171812869723  1.0000
  Rh  Rh9       1.0  0.006521196682864  0.0059375001408407185  0.9995912808148112  1.0000
  Rh  Rh10      1.0  0.004854529750298373  0.005104166382198847  0.9993171812869723  1.0000
  Rh  Rh11      1.0  0.006521196682864  0.000937500263631522  0.9995912808148112  1.0000
  Rh  Rh12      1.0  0.00838217103047726  0.0068422345747424645  0.9998571782189631  1.0000
  Ti  Ti1       1.0  0.003604529813274442  0.006979166717740301  0.9995227560121958  1.0000
  Ti  Ti2       1.0  0.0052722237805767295  0.0028129754886008847  0.9998102572720966  1.0000
  Ti  Ti3       1.0  0.0019378631431091048  0.0011458333227240259  0.9992486564828688  1.0000
  Ti  Ti4       1.0  0.009437863552453558  0.00989583358732986  0.9996598056174266  1.0000
  Ti  Ti5       1.0  0.0013021338891226189  0.005827198097189839  0.999915167910937  1.0000
  Ti  Ti6       1.0  0.00777119661988793  0.004062500115930762  0.9993857060895878  1.0000
