data_image0
_chemical_formula_structural       HRe36
_chemical_formula_sum              "H1 Re36"
_cell_length_a       8.998384475708008
_cell_length_b       7.361329960104041
_cell_length_c       100.60553741455078
_cell_angle_alpha    79.10660528881454
_cell_angle_beta     90.0
_cell_angle_gamma    90.0

_space_group_name_H-M_alt    "P 1"
_space_group_IT_number       1

loop_
  _space_group_symop_operation_xyz
  'x, y, z'

loop_
  _atom_site_type_symbol
  _atom_site_label
  _atom_site_symmetry_multiplicity
  _atom_site_fract_x
  _atom_site_fract_y
  _atom_site_fract_z
  _atom_site_occupancy
  H   H1        1.0  0.002500012999457368  0.007835596886629147  0.9999668748653189  1.0000
  Re  Re1       1.0  0.003750004802347308  0.005549024693584533  0.9991284283168864  1.0000
  Re  Re2       1.0  0.003750004802347308  0.0022156914255286697  0.9993127999458407  1.0000
  Re  Re3       1.0  0.003750004802347308  0.00888235821931462  0.9992206141232298  1.0000
  Re  Re4       1.0  0.0012500046367491249  0.007771247387636888  0.9993742574385012  1.0000
  Re  Re5       1.0  0.0012500046367491249  0.004437913861906802  0.9992820713359283  1.0000
  Re  Re6       1.0  0.0012500046367491249  0.0011045803361767153  0.9991898855295849  1.0000
  Re  Re7       1.0  0.003750004802347308  0.005549024693584533  0.9994049860519766  1.0000
  Re  Re8       1.0  0.003750004802347308  0.0022156914255286697  0.9995893573847013  1.0000
  Re  Re9       1.0  0.003750004802347308  0.00888235821931462  0.9994971715620905  1.0000
  Re  Re10      1.0  0.001250011260676446  0.007763681557108919  0.9996473395638786  1.0000
  Re  Re11      1.0  0.0012500046367491249  0.004437913861906802  0.9995586287747891  1.0000
  Re  Re12      1.0  0.0012500046367491249  0.0011045803361767153  0.9994664429684457  1.0000
  Re  Re13      1.0  0.003749999834401817  0.005550504774319928  0.9996793146339654  1.0000
  Re  Re14      1.0  0.0037499944524608687  0.0024124872787266933  0.9998471361422434  1.0000
  Re  Re15      1.0  0.0037500110122791717  0.008895420241013544  0.9997887218455408  1.0000
  Re  Re16      1.0  0.0012500148831366999  0.007681407723834712  0.9998937824685508  1.0000
  Re  Re17      1.0  0.0012499892154183303  0.004386990735964415  0.9998305535025157  1.0000
  Re  Re18      1.0  0.0012499971848308885  0.0011883312869327555  0.9997450220366343  1.0000
  Re  Re19      1.0  0.008750004305552759  0.005549024693584533  0.9991284283168864  1.0000
  Re  Re20      1.0  0.008750004305552759  0.0022156914255286697  0.9993127999458407  1.0000
  Re  Re21      1.0  0.008750004305552759  0.00888235821931462  0.9992206141232298  1.0000
  Re  Re22      1.0  0.006250004553950033  0.007771247387636888  0.9993742574385012  1.0000
  Re  Re23      1.0  0.006250004553950033  0.004437913861906802  0.9992820713359283  1.0000
  Re  Re24      1.0  0.006250004553950033  0.0011045803361767153  0.9991898855295849  1.0000
  Re  Re25      1.0  0.008750004305552759  0.005549024693584533  0.9994049860519766  1.0000
  Re  Re26      1.0  0.008750004305552759  0.0022156914255286697  0.9995893573847013  1.0000
  Re  Re27      1.0  0.008750004305552759  0.00888235821931462  0.9994971715620905  1.0000
  Re  Re28      1.0  0.006250011177877355  0.007763681557108919  0.9996473395638786  1.0000
  Re  Re29      1.0  0.006250004553950033  0.004437913861906802  0.9995586287747891  1.0000
  Re  Re30      1.0  0.006250004553950033  0.0011045803361767153  0.9994664429684457  1.0000
  Re  Re31      1.0  0.008750000165598184  0.005550504774319928  0.9996793146339654  1.0000
  Re  Re32      1.0  0.008749994369661777  0.0024124872787266933  0.9998471361422434  1.0000
  Re  Re33      1.0  0.00875001092948008  0.008895420241013544  0.9997887218455408  1.0000
  Re  Re34      1.0  0.006250014903836473  0.007681407723834712  0.9998937824685508  1.0000
  Re  Re35      1.0  0.006249989236118103  0.004386990735964415  0.9998305535025157  1.0000
  Re  Re36      1.0  0.006249997102031797  0.0011883312869327555  0.9997450220366343  1.0000
