data_image0
_chemical_formula_structural       CORe6Os18Re6Os18
_chemical_formula_sum              "C1 O1 Re12 Os36"
_cell_length_a       5.541820825940596
_cell_length_b       10.354163850392924
_cell_length_c       112.35677337646484
_cell_angle_alpha    84.08181202014674
_cell_angle_beta     113.1107765009729
_cell_angle_gamma    74.47771441667078

_space_group_name_H-M_alt    "P 1"
_space_group_IT_number       1

loop_
  _space_group_symop_operation_xyz
  'x, y, z'

loop_
  _atom_site_type_symbol
  _atom_site_label
  _atom_site_symmetry_multiplicity
  _atom_site_fract_x
  _atom_site_fract_y
  _atom_site_fract_z
  _atom_site_occupancy
  C   C1        1.0  0.0065947903999795734  0.007078952413035658  6.041143801662746e-05  1.0000
  O   O1        1.0  0.0065947903999795734  0.007078952413035658  0.00016721429429381463  1.0000
  Re  Re1       1.0  0.006760804112250438  0.0013760083029387487  0.9989391984207134  1.0000
  Re  Re2       1.0  0.006760804171500161  0.004709341549197432  0.9991486344347132  1.0000
  Re  Re3       1.0  0.006760803969354046  0.008042675179608985  0.999358070174755  1.0000
  Re  Re4       1.0  0.0034274709405403606  0.008598230144422793  0.9989741041836686  1.0000
  Re  Re5       1.0  0.0034274706913429943  0.0019315638439818626  0.9991835402298292  1.0000
  Re  Re6       1.0  0.0034274706198947984  0.00526489728231698  0.9987646684262054  1.0000
  Os  Os1       1.0  0.0034401534125473848  0.000262783395679705  0.998764933938833  1.0000
  Os  Os2       1.0  0.003440153324761949  0.003596116858024377  0.9989743696826857  1.0000
  Os  Os3       1.0  0.0034401533840116728  0.00692945010428306  0.9991838059619328  1.0000
  Os  Os4       1.0  0.00842112911901553  0.008602458130902187  0.9989735729314847  1.0000
  Os  Os5       1.0  0.008421129992779901  0.001935791254231951  0.999183009004861  1.0000
  Os  Os6       1.0  0.008421130052029624  0.005269124500490634  0.9987641372055925  1.0000
  Os  Os7       1.0  0.008421129796039546  0.000262783395679705  0.9987649339331693  1.0000
  Os  Os8       1.0  0.00842112970825411  0.003596116858024377  0.9989743699422693  1.0000
  Os  Os9       1.0  0.008421129036635852  0.00692945010428306  0.9991838056768723  1.0000
  Os  Os10      1.0  0.006748122256750714  0.009711455219748718  0.9991483684106404  1.0000
  Os  Os11      1.0  0.006748122138251267  0.0030447887272313516  0.9993578044611564  1.0000
  Os  Os12      1.0  0.006748121466633009  0.006378121973490035  0.9989389326477384  1.0000
  Os  Os13      1.0  0.001767145424313476  0.0013717807966504428  0.9989397293932243  1.0000
  Os  Os14      1.0  0.0017671453661951637  0.004705113946870908  0.9991491656711116  1.0000
  Os  Os15      1.0  0.001767145790878878  0.008038447193129591  0.9993586014269389  1.0000
  Os  Os16      1.0  0.0017671451423905732  0.009711455219748718  0.9991483686674018  1.0000
  Os  Os17      1.0  0.001767145389325117  0.0030447887272313516  0.9993578047249926  1.0000
  Os  Os18      1.0  0.0017671454485748402  0.006378121973490035  0.998938932925724  1.0000
  Re  Re7       1.0  0.006760804112250438  0.0013760083029387487  0.9995675062339817  1.0000
  Re  Re8       1.0  0.006766543148441083  0.004707783809312465  0.9997775463964464  1.0000
  Re  Re9       1.0  0.006556871445416569  0.008077431794610757  0.9999627787397958  1.0000
  Re  Re10      1.0  0.0034274709405403606  0.008598230144422793  0.9996024122621842  1.0000
  Re  Re11      1.0  0.0034381735050940908  0.001927209471208474  0.9998130061564076  1.0000
  Re  Re12      1.0  0.0034274706198947984  0.00526489728231698  0.9993929759742264  1.0000
  Os  Os19      1.0  0.0034401534125473848  0.000262783395679705  0.999393241486854  1.0000
  Os  Os20      1.0  0.003440153324761949  0.003596116858024377  0.9996026777612013  1.0000
  Os  Os21      1.0  0.003468823472495342  0.006919501313274219  0.9998131821840274  1.0000
  Os  Os22      1.0  0.00842112911901553  0.008602458130902187  0.9996018804795057  1.0000
  Os  Os23      1.0  0.008436716388414672  0.0019360513257244596  0.9998132874214601  1.0000
  Os  Os24      1.0  0.008421130052029624  0.005269124500490634  0.9993924447536136  1.0000
  Os  Os25      1.0  0.008421129796039546  0.000262783395679705  0.9993932417464376  1.0000
  Os  Os26      1.0  0.00842112970825411  0.003596116858024377  0.9996026774902903  1.0000
  Os  Os27      1.0  0.008418930923736814  0.006919385299107694  0.9998132007682626  1.0000
  Os  Os28      1.0  0.0067635011135326936  0.009737216511163225  0.9997811378512347  1.0000
  Os  Os29      1.0  0.006547641074210956  0.0030965865555912108  0.9999645027659588  1.0000
  Os  Os30      1.0  0.006748121466633009  0.006378121973490035  0.9995672401957594  1.0000
  Os  Os31      1.0  0.001767145424313476  0.0013717807966504428  0.9995680374717397  1.0000
  Os  Os32      1.0  0.0017813546506017363  0.004713199596463699  0.9997796486340466  1.0000
  Os  Os33      1.0  0.001563283201529496  0.008084019248013321  0.9999640584310505  1.0000
  Os  Os34      1.0  0.0017982472088617916  0.009736736320076614  0.9997810842129513  1.0000
  Os  Os35      1.0  0.0015737131743826993  0.0030970527250980926  0.9999645183568476  1.0000
  Os  Os36      1.0  0.0017671454485748402  0.006378121973490035  0.9995672404737451  1.0000
