data_image0
_chemical_formula_structural       Sn4Au12H
_chemical_formula_sum              "Sn4 Au12 H1"
_cell_length_a       6.085491248359039
_cell_length_b       7.900453573815654
_cell_length_c       101.60181427001953
_cell_angle_alpha    100.75648710101783
_cell_angle_beta     112.6521582020738
_cell_angle_gamma    67.3478428591258

_space_group_name_H-M_alt    "P 1"
_space_group_IT_number       1

loop_
  _space_group_symop_operation_xyz
  'x, y, z'

loop_
  _atom_site_type_symbol
  _atom_site_label
  _atom_site_symmetry_multiplicity
  _atom_site_fract_x
  _atom_site_fract_y
  _atom_site_fract_z
  _atom_site_occupancy
  Sn  Sn1       1.0  0.006695778689677529  0.0020671446064776384  0.9998746985334133  1.0000
  Sn  Sn2       1.0  0.006744084858114231  0.006873057248439399  0.0002553175075085017  1.0000
  Sn  Sn3       1.0  0.003362445504106191  0.00790047783410916  0.9998098995583125  1.0000
  Sn  Sn4       1.0  0.0033813778182183577  0.0028465851619501235  0.00019821450616891868  1.0000
  Au  Au1       1.0  0.0033114561582120844  0.0004132253025255406  0.9996145109400542  1.0000
  Au  Au2       1.0  0.0033659447388675505  0.0054430948405317274  8.1282232892172e-06  1.0000
  Au  Au3       1.0  0.008387940931716088  0.007874983068615626  0.9998118818029049  1.0000
  Au  Au4       1.0  0.00829927057399142  0.002943011810053861  0.00019188745397534637  1.0000
  Au  Au5       1.0  0.008387940017169044  0.0004132253025255406  0.999614510678374  1.0000
  Au  Au6       1.0  0.008364402389905492  0.005442715336930784  8.113594872713e-06  1.0000
  Au  Au7       1.0  0.0066932931322997635  0.009586774466038638  7.818188292666982e-05  1.0000
  Au  Au8       1.0  0.006746768418470454  0.004554397141897211  0.9996812924187333  1.0000
  Au  Au9       1.0  0.0016702839864531677  0.002092639244106078  0.9998727163036752  1.0000
  Au  Au10      1.0  0.0016120598731240506  0.007040919056165911  0.00024846606748151303  1.0000
  Au  Au11      1.0  0.0017965541834002127  0.009585551052812957  7.819156633212708e-05  1.0000
  Au  Au12      1.0  0.001670284227849244  0.004554397141897211  0.9996812923794379  1.0000
  H   H1        1.0  0.004244923989514239  0.009586162759425797  0.00022582219042766564  1.0000
