data_image0
_chemical_formula_structural       COV10Si6V10Si6
_chemical_formula_sum              "C1 O1 V20 Si12"
_cell_length_a       7.141180698368887
_cell_length_b       7.141180515289307
_cell_length_c       103.99397277832031
_cell_angle_alpha    90.0
_cell_angle_beta     90.0
_cell_angle_gamma    119.99999915192964

_space_group_name_H-M_alt    "P 1"
_space_group_IT_number       1

loop_
  _space_group_symop_operation_xyz
  'x, y, z'

loop_
  _atom_site_type_symbol
  _atom_site_label
  _atom_site_symmetry_multiplicity
  _atom_site_fract_x
  _atom_site_fract_y
  _atom_site_fract_z
  _atom_site_occupancy
  C   C1        1.0  0.00023570940255504959  0.007580831040609532  0.00016655305362938858  1.0000
  O   O1        1.0  0.00023570940255504959  0.007580831040609532  0.0002819440171002248  1.0000
  V   V1        1.0  0.009764290310568796  0.003909066777858931  0.0  1.0000
  V   V2        1.0  0.004659975911968486  0.006356909583775407  0.0  1.0000
  V   V3        1.0  0.0022121332076469814  0.003909066983310436  0.9997665110629331  1.0000
  V   V4        1.0  0.0088787998462033  0.009690243060028579  0.9998832552448892  1.0000
  V   V5        1.0  0.0022121332076469814  0.008804752237358857  0.0  1.0000
  V   V6        1.0  0.005545466376333983  0.003023576189461517  0.9998832552448892  1.0000
  V   V7        1.0  0.009764290310568796  0.006356909404883142  0.9997665110629331  1.0000
  V   V8        1.0  0.0088787998462033  0.009690243060028579  0.9996497668809771  1.0000
  V   V9        1.0  0.004659975911968486  0.00880475234121539  0.9997665110629331  1.0000
  V   V10       1.0  0.005545466376333983  0.003023576189461517  0.9996497668809771  1.0000
  Si  Si1       1.0  0.008259285894127699  0.002404062040156656  0.9997665110629331  1.0000
  Si  Si2       1.0  0.0022121332076469814  0.0003097570250575055  0.9997665110629331  1.0000
  Si  Si3       1.0  0.0022121332076469814  0.002404062054762755  0.0  1.0000
  Si  Si4       1.0  0.006164980930774214  0.006356909694112316  0.9997665110629331  1.0000
  Si  Si5       1.0  0.006164980930774214  0.00030975697841940247  0.0  1.0000
  Si  Si6       1.0  0.008259285894127699  0.006356909595728549  0.0  1.0000
  V   V11       1.0  0.009764290310568796  0.003909066777858931  0.999533022699021  1.0000
  V   V12       1.0  0.004659975911968486  0.006356909583775407  0.999533022699021  1.0000
  V   V13       1.0  0.0022121332076469814  0.003909066983310436  0.9992995340485314  1.0000
  V   V14       1.0  0.0088787998462033  0.009690243060028579  0.9994162782304875  1.0000
  V   V15       1.0  0.0022121332076469814  0.008804752237358857  0.999533022699021  1.0000
  V   V16       1.0  0.005545466376333983  0.003023576189461517  0.9994162782304875  1.0000
  V   V17       1.0  0.009764290310568796  0.006356909404883142  0.9992995340485314  1.0000
  V   V18       1.0  0.0088787998462033  0.009690243060028579  0.9991827895799981  1.0000
  V   V19       1.0  0.004659975911968486  0.00880475234121539  0.9992995340485314  1.0000
  V   V20       1.0  0.005545466376333983  0.003023576189461517  0.9991827895799981  1.0000
  Si  Si7       1.0  0.008259285894127699  0.002404062040156656  0.9992995340485314  1.0000
  Si  Si8       1.0  0.0022121332076469814  0.0003097570250575055  0.9992995340485314  1.0000
  Si  Si9       1.0  0.0022121332076469814  0.002404062054762755  0.999533022699021  1.0000
  Si  Si10      1.0  0.006164980930774214  0.006356909694112316  0.9992995340485314  1.0000
  Si  Si11      1.0  0.006164980930774214  0.00030975697841940247  0.999533022699021  1.0000
  Si  Si12      1.0  0.008259285894127699  0.006356909595728549  0.999533022699021  1.0000
