data_image0
_chemical_formula_structural       COCa20As12Ca20As12
_chemical_formula_sum              "C1 O1 Ca40 As24"
_cell_length_a       8.636090278625488
_cell_length_b       18.59555959621647
_cell_length_c       111.33761596679688
_cell_angle_alpha    68.25371776209172
_cell_angle_beta     90.0
_cell_angle_gamma    62.32751513499756

_space_group_name_H-M_alt    "P 1"
_space_group_IT_number       1

loop_
  _space_group_symop_operation_xyz
  'x, y, z'

loop_
  _atom_site_type_symbol
  _atom_site_label
  _atom_site_symmetry_multiplicity
  _atom_site_fract_x
  _atom_site_fract_y
  _atom_site_fract_z
  _atom_site_occupancy
  C   C1        1.0  0.008625241434172813  0.008070877896777979  0.9995732521143887  1.0000
  O   O1        1.0  0.008625241434172813  0.008070877896777979  0.9996810326179902  1.0000
  Ca  Ca1       1.0  0.006688775716757601  0.0033428137245569804  0.9987341513441071  1.0000
  Ca  Ca2       1.0  0.0066887759266728  0.008342813445623692  0.9984247505266389  1.0000
  Ca  Ca3       1.0  0.00335544283233558  0.0016761471093601468  0.9985278841463218  1.0000
  Ca  Ca4       1.0  0.0033554422373163546  0.006676147203998227  0.9988372852749905  1.0000
  Ca  Ca5       1.0  0.00335544283233558  0.0016761471093601468  0.9988372856662991  1.0000
  Ca  Ca6       1.0  0.0033554422373163546  0.006676147203998227  0.9985278842903637  1.0000
  Ca  Ca7       1.0  0.006688775716757601  0.0033428137245569804  0.9984247503594803  1.0000
  Ca  Ca8       1.0  0.0066887759266728  0.008342813445623692  0.9987341515112658  1.0000
  Ca  Ca9       1.0  2.2109398079862542e-05  0.001278176301609512  0.998397809928967  1.0000
  Ca  Ca10      1.0  2.2109483471272326e-05  0.006278176147200013  0.9987072110730469  1.0000
  Ca  Ca11      1.0  0.007484717450729511  0.001278176301609512  0.9987072114489444  1.0000
  Ca  Ca12      1.0  0.007484717536120921  0.006278176147200013  0.9983978100884201  1.0000
  Ca  Ca13      1.0  0.0025595012867322972  0.0050094804642776035  0.998476317324922  1.0000
  Ca  Ca14      1.0  0.002559501204548832  9.480399797629018e-06  0.9987857186989912  1.0000
  Ca  Ca15      1.0  0.007484717530067772  0.0050094804642776035  0.9987857183095489  1.0000
  Ca  Ca16      1.0  0.007484717663565835  9.480399797629018e-06  0.9984763171790139  1.0000
  Ca  Ca17      1.0  0.0025595010983636706  0.003740784532307615  0.9988642255614619  1.0000
  Ca  Ca18      1.0  0.002559501988689505  0.008740784004326749  0.9985548242240544  1.0000
  Ca  Ca19      1.0  2.2109289049497324e-05  0.003740784532307615  0.9985548245768351  1.0000
  Ca  Ca20      1.0  2.2109748012274992e-05  0.008740784004326749  0.9988642257440317  1.0000
  As  As1       1.0  2.2109416992108494e-05  0.0030606301169116197  0.9989063137030597  1.0000
  As  As2       1.0  2.2109377859729113e-05  0.00806063008702591  0.9985969123348298  1.0000
  As  As3       1.0  0.00391980980121305  0.0030606301169116197  0.9985969127184329  1.0000
  As  As4       1.0  0.0039198101934437264  0.00806063008702591  0.9989063138548072  1.0000
  As  As5       1.0  0.0061244089551610046  0.0050094804642776035  0.998476317324922  1.0000
  As  As6       1.0  0.006124409088659069  9.480399797629018e-06  0.9987857186989912  1.0000
  As  As7       1.0  0.003919809861639065  0.0050094804642776035  0.9987857183095489  1.0000
  As  As8       1.0  0.003919809995137129  9.480399797629018e-06  0.9984763171790139  1.0000
  As  As9       1.0  0.006124408872403921  0.001958330592481718  0.9983557217950748  1.0000
  As  As10      1.0  0.006124408833271542  0.006958330562596008  0.9986651229314492  1.0000
  As  As11      1.0  2.2109394661040134e-05  0.001958330592481718  0.9986651233150521  1.0000
  As  As12      1.0  2.2109355528660756e-05  0.006958330562596008  0.9983557219468223  1.0000
  Ca  Ca21      1.0  0.007093893866002997  0.0032691100861384245  0.9993695150661356  1.0000
  Ca  Ca22      1.0  0.0066887759266728  0.008342813445623692  0.9990435530312431  1.0000
  Ca  Ca23      1.0  0.00335544283233558  0.0016761471093601468  0.999146686650926  1.0000
  Ca  Ca24      1.0  0.003762974570797926  0.006672879699770873  0.9994569072327408  1.0000
  Ca  Ca25      1.0  0.0029552796305905545  0.0016730367541547032  0.9994566730524285  1.0000
  Ca  Ca26      1.0  0.0033554422373163546  0.006676147203998227  0.9991466867949679  1.0000
  Ca  Ca27      1.0  0.006688775716757601  0.0033428137245569804  0.9990435528640845  1.0000
  Ca  Ca28      1.0  0.00643026120415109  0.008269497823332134  0.9993695190609743  1.0000
  Ca  Ca29      1.0  2.2109398079862542e-05  0.001278176301609512  0.9990166124335712  1.0000
  Ca  Ca30      1.0  8.716690546773604e-05  0.006302155942324629  0.9992892752670115  1.0000
  Ca  Ca31      1.0  0.007372572728000718  0.0013033685848691029  0.9992890362612173  1.0000
  Ca  Ca32      1.0  0.007484717536120921  0.006278176147200013  0.9990166125930242  1.0000
  Ca  Ca33      1.0  0.0025595012867322972  0.0050094804642776035  0.9990951198295261  1.0000
  Ca  Ca34      1.0  0.0025804652369131715  0.009990519695112846  0.9993712053784649  1.0000
  Ca  Ca35      1.0  0.007502145380878169  0.00498972152751009  0.9993713151139996  1.0000
  Ca  Ca36      1.0  0.007484717663565835  9.480399797629018e-06  0.9990951196836181  1.0000
  Ca  Ca37      1.0  0.0025303012030522326  0.0038419556281373618  0.999434631741676  1.0000
  Ca  Ca38      1.0  0.002559501988689505  0.008740784004326749  0.999173627264009  1.0000
  Ca  Ca39      1.0  2.2109289049497324e-05  0.003740784532307615  0.9991736270814393  1.0000
  Ca  Ca40      1.0  0.009851379532479006  0.008841098376487128  0.9994344333238213  1.0000
  As  As13      1.0  0.0002094841170031769  0.0031470971946706973  0.9994959831920237  1.0000
  As  As14      1.0  2.2109377859729113e-05  0.00806063008702591  0.9992157153747845  1.0000
  As  As15      1.0  0.00391980980121305  0.0030606301169116197  0.9992157152230371  1.0000
  As  As16      1.0  0.0035548312799010048  0.008146790587216094  0.9994958743661134  1.0000
  As  As17      1.0  0.0061244089551610046  0.0050094804642776035  0.9990951198295261  1.0000
  As  As18      1.0  0.005994444439910972  6.718569750569964e-05  0.9994040645176314  1.0000
  As  As19      1.0  0.003937759334311876  0.005066669259683639  0.9994044355016896  1.0000
  As  As20      1.0  0.003919809995137129  9.480399797629018e-06  0.9990951196836181  1.0000
  As  As21      1.0  0.006124408872403921  0.001958330592481718  0.998974524299679  1.0000
  As  As22      1.0  0.006254319679603345  0.006916146883782812  0.9992746499225744  1.0000
  As  As23      1.0  0.009977890320058483  0.0019150453762296813  0.9992745150364383  1.0000
  As  As24      1.0  2.2109355528660756e-05  0.006958330562596008  0.9989745244514264  1.0000
