data_image0
_chemical_formula_structural       COIn3Ni9In3Ni9In3Ni9In3Ni9
_chemical_formula_sum              "C1 O1 In12 Ni36"
_cell_length_a       8.455192956576841
_cell_length_b       7.562554359436035
_cell_length_c       102.08519744873047
_cell_angle_alpha    90.0
_cell_angle_beta     108.4349493338259
_cell_angle_gamma    90.0

_space_group_name_H-M_alt    "P 1"
_space_group_IT_number       1

loop_
  _space_group_symop_operation_xyz
  'x, y, z'

loop_
  _atom_site_type_symbol
  _atom_site_label
  _atom_site_symmetry_multiplicity
  _atom_site_fract_x
  _atom_site_fract_y
  _atom_site_fract_z
  _atom_site_occupancy
  C   C1        1.0  0.00950808406679251  0.004583333208542137  0.0001917288837163401  1.0000
  O   O1        1.0  0.00950808406679251  0.004583333208542137  0.00030927741194519475  1.0000
  In  In1       1.0  0.008825248734000457  0.0012500000443337147  0.9998382735416109  1.0000
  In  In2       1.0  0.005491915877476521  0.0012500000443337147  1.2883921184664813e-05  1.0000
  In  In3       1.0  0.002158582324315478  0.0012500000443337147  0.9996636633914501  1.0000
  Ni  Ni1       1.0  0.0004919157218942335  0.003750000009851937  1.2884022206610735e-05  1.0000
  Ni  Ni2       1.0  0.007158582537950858  0.003750000009851937  0.9996636635838844  1.0000
  Ni  Ni3       1.0  0.003825249217002184  0.003750000009851937  0.9998382736593584  1.0000
  Ni  Ni4       1.0  0.007158582537950858  0.003750000009851937  0.9999255787374798  1.0000
  Ni  Ni5       1.0  0.003825249217002184  0.003750000009851937  0.00010018910488954267  1.0000
  Ni  Ni6       1.0  0.0004919157218942335  0.003750000009851937  0.9997509685766754  1.0000
  Ni  Ni7       1.0  0.008825248734000457  0.0012500000443337147  0.00010018898714210852  1.0000
  Ni  Ni8       1.0  0.005491915877476521  0.0012500000443337147  0.9997509684756535  1.0000
  Ni  Ni9       1.0  0.002158582324315478  0.0012500000443337147  0.9999255788369812  1.0000
  In  In4       1.0  0.008825248734000457  0.0012500000443337147  0.9993144432344201  1.0000
  In  In5       1.0  0.005491915877476521  0.0012500000443337147  0.9994890533220581  1.0000
  In  In6       1.0  0.002158582324315478  0.0012500000443337147  0.9991398330842592  1.0000
  Ni  Ni10      1.0  0.0004919157218942335  0.003750000009851937  0.99948905342308  1.0000
  Ni  Ni11      1.0  0.007158582537950858  0.003750000009851937  0.9991398329847578  1.0000
  Ni  Ni12      1.0  0.003825249217002184  0.003750000009851937  0.9993144430602318  1.0000
  Ni  Ni13      1.0  0.007158582537950858  0.003750000009851937  0.9994017481383531  1.0000
  Ni  Ni14      1.0  0.003825249217002184  0.003750000009851937  0.999576358505763  1.0000
  Ni  Ni15      1.0  0.0004919157218942335  0.003750000009851937  0.9992271379775488  1.0000
  Ni  Ni16      1.0  0.008825248734000457  0.0012500000443337147  0.9995763583880155  1.0000
  Ni  Ni17      1.0  0.005491915877476521  0.0012500000443337147  0.9992271381684626  1.0000
  Ni  Ni18      1.0  0.002158582324315478  0.0012500000443337147  0.9994017482378547  1.0000
  In  In7       1.0  0.008825248734000457  0.006250000098519366  0.9998382735416109  1.0000
  In  In8       1.0  0.005491915877476521  0.006250000098519366  1.2883921184664813e-05  1.0000
  In  In9       1.0  0.002158582324315478  0.006250000098519366  0.9996636633914501  1.0000
  Ni  Ni19      1.0  0.0004919157218942335  0.00875000043348521  1.2884022206610735e-05  1.0000
  Ni  Ni20      1.0  0.007158582537950858  0.00875000043348521  0.9996636635838844  1.0000
  Ni  Ni21      1.0  0.003825249217002184  0.00875000043348521  0.9998382736593584  1.0000
  Ni  Ni22      1.0  0.007158582537950858  0.00875000043348521  0.9999255787374798  1.0000
  Ni  Ni23      1.0  0.003825249217002184  0.00875000043348521  0.00010018910488954267  1.0000
  Ni  Ni24      1.0  0.0004919157218942335  0.00875000043348521  0.9997509685766754  1.0000
  Ni  Ni25      1.0  0.008825248734000457  0.006250000098519366  0.00010018898714210852  1.0000
  Ni  Ni26      1.0  0.005491915877476521  0.006250000098519366  0.9997509684756535  1.0000
  Ni  Ni27      1.0  0.002158582324315478  0.006250000098519366  0.9999255788369812  1.0000
  In  In10      1.0  0.008825248734000457  0.006250000098519366  0.9993144432344201  1.0000
  In  In11      1.0  0.005491915877476521  0.006250000098519366  0.9994890533220581  1.0000
  In  In12      1.0  0.002158582324315478  0.006250000098519366  0.9991398330842592  1.0000
  Ni  Ni28      1.0  0.0004919157218942335  0.00875000043348521  0.99948905342308  1.0000
  Ni  Ni29      1.0  0.007158582537950858  0.00875000043348521  0.9991398329847578  1.0000
  Ni  Ni30      1.0  0.003825249217002184  0.00875000043348521  0.9993144430602318  1.0000
  Ni  Ni31      1.0  0.007158582537950858  0.00875000043348521  0.9994017481383531  1.0000
  Ni  Ni32      1.0  0.003825249217002184  0.00875000043348521  0.999576358505763  1.0000
  Ni  Ni33      1.0  0.0004919157218942335  0.00875000043348521  0.9992271379775488  1.0000
  Ni  Ni34      1.0  0.008825248734000457  0.006250000098519366  0.9995763583880155  1.0000
  Ni  Ni35      1.0  0.005491915877476521  0.006250000098519366  0.9992271381684626  1.0000
  Ni  Ni36      1.0  0.002158582324315478  0.006250000098519366  0.9994017482378547  1.0000
