data_image0
_chemical_formula_structural       COPd18Zn6
_chemical_formula_sum              "C1 O1 Pd18 Zn6"
_cell_length_a       4.806227325476001
_cell_length_b       7.405820203950988
_cell_length_c       101.32566833496094
_cell_angle_alpha    86.42811918133033
_cell_angle_beta     89.45964229496208
_cell_angle_gamma    88.85711934592851

_space_group_name_H-M_alt    "P 1"
_space_group_IT_number       1

loop_
  _space_group_symop_operation_xyz
  'x, y, z'

loop_
  _atom_site_type_symbol
  _atom_site_label
  _atom_site_symmetry_multiplicity
  _atom_site_fract_x
  _atom_site_fract_y
  _atom_site_fract_z
  _atom_site_occupancy
  C   C1        1.0  0.0013007956848247269  0.009611219930398958  5.922849736319671e-05  1.0000
  O   O1        1.0  0.0013007956848247269  0.009611219930398958  0.00017765815996735525  1.0000
  Pd  Pd1       1.0  0.0023598761916017977  0.004568721704493806  0.9998368339603849  1.0000
  Pd  Pd2       1.0  0.00581087781016354  0.009002424354324972  0.9996618796607263  1.0000
  Pd  Pd3       1.0  0.00905872318157591  0.0001642421539715754  0.9999951997976577  1.0000
  Pd  Pd4       1.0  0.0058738071423704765  0.0072977036852198895  0.9999134869881061  1.0000
  Pd  Pd5       1.0  0.009189121563893454  0.0017531412199904065  0.9997430204190189  1.0000
  Pd  Pd6       1.0  0.0024775447677177643  0.006224646901408978  0.9995760025352891  1.0000
  Pd  Pd7       1.0  0.007298331990922653  0.0036708548712663354  0.9999471891582308  1.0000
  Pd  Pd8       1.0  0.0008476353918449497  0.008169755264761153  0.9997910706634944  1.0000
  Pd  Pd9       1.0  0.0041442113136641884  0.0026135357085223143  0.9996189414020479  1.0000
  Pd  Pd10      1.0  0.0024775446525599977  0.007891313877254447  0.9993183707878087  1.0000
  Pd  Pd11      1.0  0.005810877838115651  0.0023357579632307147  0.9991466161877997  1.0000
  Pd  Pd12      1.0  0.009144211368246901  0.0034468689443971122  0.9994901253523792  1.0000
  Pd  Pd13      1.0  0.0058108777538514785  0.0006690911764211987  0.9994042479345084  1.0000
  Pd  Pd14      1.0  0.009144211059306377  0.005113535920242581  0.9992324933108615  1.0000
  Pd  Pd15      1.0  0.0024775447462228022  0.009557980349004042  0.9990607387484063  1.0000
  Pd  Pd16      1.0  0.007477544620998811  0.007057980389331712  0.9994471867786869  1.0000
  Pd  Pd17      1.0  0.0008108780779665308  0.0015024246013319487  0.9992754319437862  1.0000
  Pd  Pd18      1.0  0.004144211105905373  0.005946868904069443  0.9991036776163961  1.0000
  Zn  Zn1       1.0  0.000810878117361054  0.009835758346343577  0.9995330636674293  1.0000
  Zn  Zn2       1.0  0.004084764492006615  0.0009365013709552638  0.9998775822650902  1.0000
  Zn  Zn3       1.0  0.007477544154808299  0.0053913134134862435  0.9997048185264273  1.0000
  Zn  Zn4       1.0  0.0008108780709785029  0.003169091199105513  0.999017800197979  1.0000
  Zn  Zn5       1.0  0.004144211399808088  0.004280202432319846  0.999361309361501  1.0000
  Zn  Zn6       1.0  0.007477544312058286  0.00872464736517718  0.9991895547371692  1.0000
