data_image0
_chemical_formula_structural       COCa4Al4Pd4
_chemical_formula_sum              "C1 O1 Ca4 Al4 Pd4"
_cell_length_a       5.814730644226074
_cell_length_b       5.684127330780029
_cell_length_c       101.77113342285156
_cell_angle_alpha    90.0
_cell_angle_beta     90.0
_cell_angle_gamma    90.0

_space_group_name_H-M_alt    "P 1"
_space_group_IT_number       1

loop_
  _space_group_symop_operation_xyz
  'x, y, z'

loop_
  _atom_site_type_symbol
  _atom_site_label
  _atom_site_symmetry_multiplicity
  _atom_site_fract_x
  _atom_site_fract_y
  _atom_site_fract_z
  _atom_site_occupancy
  C   C1        1.0  0.0010170243741857926  0.003749985961658923  6.528149880811248e-05  1.0000
  O   O1        1.0  0.0010170243741857926  0.003749985961658923  0.00018319336551432132  1.0000
  Ca  Ca1       1.0  0.003667140311487084  0.0037500000524307788  0.9996243183394261  1.0000
  Ca  Ca2       1.0  0.006357045265300211  0.008749984611566364  0.9997713636504368  1.0000
  Ca  Ca3       1.0  0.003667140311487084  0.008749999685415325  0.9993907702399728  1.0000
  Ca  Ca4       1.0  0.006096906732358709  0.00375000496781631  0.0  1.0000
  Al  Al1       1.0  0.0010169840924183562  0.0012914085086524207  0.9998950918395849  1.0000
  Al  Al2       1.0  0.0010170646559532288  0.006208563168896149  0.9998950900825647  1.0000
  Al  Al3       1.0  0.008983016086967647  0.0062499998689230524  0.9995075444361178  1.0000
  Al  Al4       1.0  0.008983016086967647  0.0012499999901692288  0.9995075444361178  1.0000
  Pd  Pd1       1.0  0.0013128398198730825  0.0037500000524307788  0.9993317282126313  1.0000
  Pd  Pd2       1.0  0.008573343304666562  0.0037499741647336487  0.9997210777331212  1.0000
  Pd  Pd3       1.0  0.0013128398198730825  0.008749999685415325  0.999683360952441  1.0000
  Pd  Pd4       1.0  0.008740135128092677  0.008749999685415325  0.9992931329218652  1.0000
