data_image0
_chemical_formula_structural       CONa8Se4
_chemical_formula_sum              "C1 O1 Na8 Se4"
_cell_length_a       4.902182102203369
_cell_length_b       6.932732582092285
_cell_length_c       109.21746063232422
_cell_angle_alpha    90.0
_cell_angle_beta     90.0
_cell_angle_gamma    90.0

_space_group_name_H-M_alt    "P 1"
_space_group_IT_number       1

loop_
  _space_group_symop_operation_xyz
  'x, y, z'

loop_
  _atom_site_type_symbol
  _atom_site_label
  _atom_site_symmetry_multiplicity
  _atom_site_fract_x
  _atom_site_fract_y
  _atom_site_fract_z
  _atom_site_occupancy
  C   C1        1.0  0.007500001398261836  0.007377588762331149  0.00015756850373420812  1.0000
  O   O1        1.0  0.007500001398261836  0.007377588762331149  0.00026744126811839965  1.0000
  Na  Na1       1.0  1.7000000303053267e-09  0.003983802487899094  0.9999979621963164  1.0000
  Na  Na2       1.0  1.2000000640226348e-09  0.0037463255495875434  0.9995545024970048  1.0000
  Na  Na3       1.0  1.89999998058236e-09  0.008508839659057566  0.9999979621963164  1.0000
  Na  Na4       1.0  1.2000000640226348e-09  0.008746325463611856  0.9995545024970048  1.0000
  Na  Na5       1.0  0.005000001185482861  0.008746325463611856  0.999330079679412  1.0000
  Na  Na6       1.0  0.005000002325370228  0.008753674235473238  0.9997830956083438  1.0000
  Na  Na7       1.0  0.005000001185482861  0.0037463255495875434  0.999330079679412  1.0000
  Na  Na8       1.0  0.005000002325370228  0.003738970598223646  0.999783095062601  1.0000
  Se  Se1       1.0  0.009999999331266078  0.0012463270702825105  0.9997878763154323  1.0000
  Se  Se2       1.0  1.2000000640226348e-09  0.0012463255925753871  0.999330079679412  1.0000
  Se  Se3       1.0  0.005000000805520406  0.006246337328256687  0.0  1.0000
  Se  Se4       1.0  0.005000001185482861  0.0062463255065997  0.9995545024970048  1.0000
