data_image0
_chemical_formula_structural       HMo2Ru6Mo2Ru6Mo2Ru6Mo2Ru6
_chemical_formula_sum              "H1 Mo8 Ru24"
_cell_length_a       5.505137748793019
_cell_length_b       8.729910850524902
_cell_length_c       108.53596496582031
_cell_angle_alpha    90.0
_cell_angle_beta     120.00000103104409
_cell_angle_gamma    90.0

_space_group_name_H-M_alt    "P 1"
_space_group_IT_number       1

loop_
  _space_group_symop_operation_xyz
  'x, y, z'

loop_
  _atom_site_type_symbol
  _atom_site_label
  _atom_site_symmetry_multiplicity
  _atom_site_fract_x
  _atom_site_fract_y
  _atom_site_fract_z
  _atom_site_occupancy
  H   H1        1.0  0.00594964000780028  0.00375  0.00017895294138208182  1.0000
  Mo  Mo1       1.0  0.003394299191997407  0.001249999573272813  0.9994585541249775  1.0000
  Mo  Mo2       1.0  0.006727632910810664  0.003749999573272813  0.9992894814838894  1.0000
  Ru  Ru1       1.0  0.0017269400314841666  0.003749999573272813  0.99954312547113  1.0000
  Ru  Ru2       1.0  0.0017269400314841666  0.003749999573272813  0.9992894110707591  1.0000
  Ru  Ru3       1.0  0.006729017513023888  0.003749999573272813  0.9995431255584588  1.0000
  Ru  Ru4       1.0  0.008394991680634793  0.001249999573272813  0.9992049101278289  1.0000
  Ru  Ru5       1.0  0.008394991680634793  0.001249999573272813  0.9994586242536149  1.0000
  Ru  Ru6       1.0  0.0033929141990950715  0.001249999573272813  0.9992049100404999  1.0000
  Mo  Mo3       1.0  0.003275031768650736  0.0012499994665910164  0.9999537002974724  1.0000
  Mo  Mo4       1.0  0.006767096418022198  0.00375  0.9998008044140669  1.0000
  Ru  Ru7       1.0  0.0016050084014099214  0.003749999573272813  4.0704445830062845e-05  1.0000
  Ru  Ru8       1.0  0.0017479006976919914  0.003749999573272813  0.9997987084059259  1.0000
  Ru  Ru9       1.0  0.006661301713361162  0.003750000426727187  4.079608582635095e-05  1.0000
  Ru  Ru10      1.0  0.008394991680634793  0.001249999573272813  0.9997121277728865  1.0000
  Ru  Ru11      1.0  0.00838436571816435  0.0012500001066817967  0.9999648101674723  1.0000
  Ru  Ru12      1.0  0.0033929141990950715  0.001249999573272813  0.9997121276855577  1.0000
  Mo  Mo5       1.0  0.003394299191997407  0.006249999146545626  0.9994585541249775  1.0000
  Mo  Mo6       1.0  0.006727632910810664  0.008749999146545626  0.9992894814838894  1.0000
  Ru  Ru13      1.0  0.0017269400314841666  0.008749999146545626  0.99954312547113  1.0000
  Ru  Ru14      1.0  0.0017269400314841666  0.008749999146545626  0.9992894110707591  1.0000
  Ru  Ru15      1.0  0.006729017513023888  0.008749999146545626  0.9995431255584588  1.0000
  Ru  Ru16      1.0  0.008394991680634793  0.006249999146545626  0.9992049101278289  1.0000
  Ru  Ru17      1.0  0.008394991680634793  0.006249999146545626  0.9994586242536149  1.0000
  Ru  Ru18      1.0  0.0033929141990950715  0.006249999146545626  0.9992049100404999  1.0000
  Mo  Mo7       1.0  0.003275031768650736  0.006249999146545626  0.9999537002974724  1.0000
  Mo  Mo8       1.0  0.006767096418022198  0.008749999999999999  0.9998008044140669  1.0000
  Ru  Ru19      1.0  0.0016050084014099214  0.008749999146545626  4.0704445830062845e-05  1.0000
  Ru  Ru20      1.0  0.0017479006976919914  0.008749999146545626  0.9997987084059259  1.0000
  Ru  Ru21      1.0  0.006661301713361162  0.008749999999999999  4.079608582635095e-05  1.0000
  Ru  Ru22      1.0  0.008394991680634793  0.006249999146545626  0.9997121277728865  1.0000
  Ru  Ru23      1.0  0.00838436571816435  0.0062499999999999995  0.9999648101674723  1.0000
  Ru  Ru24      1.0  0.0033929141990950715  0.006249999146545626  0.9997121276855577  1.0000
