data_image0
_chemical_formula_structural       Al6Re12H
_chemical_formula_sum              "Al6 Re12 H1"
_cell_length_a       5.285296637021307
_cell_length_b       6.729605179390274
_cell_length_c       102.00408172607422
_cell_angle_alpha    91.20486631620841
_cell_angle_beta     90.25804561214123
_cell_angle_gamma    112.45642926342084

_space_group_name_H-M_alt    "P 1"
_space_group_IT_number       1

loop_
  _space_group_symop_operation_xyz
  'x, y, z'

loop_
  _atom_site_type_symbol
  _atom_site_label
  _atom_site_symmetry_multiplicity
  _atom_site_fract_x
  _atom_site_fract_y
  _atom_site_fract_z
  _atom_site_occupancy
  Al  Al1       1.0  0.004886799335274067  0.009903933234464831  0.9996717669783413  1.0000
  Al  Al2       1.0  0.0040534655751886  0.0015705998212421507  0.9994103060509927  1.0000
  Al  Al3       1.0  0.004470132606663412  0.005737266527853491  0.9995410365147023  1.0000
  Al  Al4       1.0  0.006112970967199601  0.0025723442427095663  5.801239132701593e-05  1.0000
  Al  Al5       1.0  0.005347172006664128  0.004101610014189882  0.9998019451653403  1.0000
  Al  Al6       1.0  0.005777033740613282  0.008233324731487426  0.9999455834864345  1.0000
  Re  Re1       1.0  0.00715207886186467  0.00547231410349426  0.9993228648032788  1.0000
  Re  Re2       1.0  0.0075687460086207295  0.009638981409275714  0.9994535952678465  1.0000
  Re  Re3       1.0  0.007985412377373088  0.0038056478402688026  0.9995843259004765  1.0000
  Re  Re4       1.0  0.0009548526292765509  0.007668885515023236  0.9994977471292954  1.0000
  Re  Re5       1.0  0.001371519174240782  0.001835551946016326  0.9996284774697987  1.0000
  Re  Re6       1.0  0.0005381859502254845  0.0035022188084118957  0.999367016665668  1.0000
  Re  Re7       1.0  0.008402079086889468  0.007972314247295087  0.9997150563636955  1.0000
  Re  Re8       1.0  0.008850792744499866  0.002125970897646176  0.9998451397930208  1.0000
  Re  Re9       1.0  0.009461814577210528  0.0063159180593744795  0.9999710613982697  1.0000
  Re  Re10      1.0  0.0020804584163262767  9.606690072292414e-05  0.9998948504624211  1.0000
  Re  Re11      1.0  0.002535927537460481  0.004280980275185698  6.530591736835132e-06  1.0000
  Re  Re12      1.0  0.0017881860871443453  0.006002218952212723  0.9997592079338962  1.0000
  H   H1        1.0  0.000998871126684548  0.005298449317072617  0.0001358492107971995  1.0000
