data_image0
_chemical_formula_structural       COAl16Au16
_chemical_formula_sum              "C1 O1 Al16 Au16"
_cell_length_a       7.3009167484042585
_cell_length_b       14.682399167889592
_cell_length_c       108.32192993164062
_cell_angle_alpha    106.15965821823174
_cell_angle_beta     113.56688807727275
_cell_angle_gamma    37.61942614492755

_space_group_name_H-M_alt    "P 1"
_space_group_IT_number       1

loop_
  _space_group_symop_operation_xyz
  'x, y, z'

loop_
  _atom_site_type_symbol
  _atom_site_label
  _atom_site_symmetry_multiplicity
  _atom_site_fract_x
  _atom_site_fract_y
  _atom_site_fract_z
  _atom_site_occupancy
  C   C1        1.0  0.0035932759870755935  0.00278650275011514  0.00030592466703022593  1.0000
  O   O1        1.0  0.0035932759870755935  0.00278650275011514  0.0004167057833403581  1.0000
  Al  Al1       1.0  0.0073503328135349835  0.006647466923182845  0.9996796858021717  1.0000
  Al  Al2       1.0  0.0048676396531698194  0.0041732239957988655  0.9999115317660959  1.0000
  Al  Al3       1.0  0.009850332496238155  0.009147467473149876  0.999458574443894  1.0000
  Al  Al4       1.0  0.0023219772129711228  0.001645912270545755  0.00012466270202483062  1.0000
  Al  Al5       1.0  0.007798182898741288  0.008323991837769298  0.00010385136505071372  1.0000
  Al  Al6       1.0  0.005149666333737164  0.00585253332680217  0.9994321002119336  1.0000
  Al  Al7       1.0  0.00014966674747064345  0.0008525332163921214  0.9998743229598662  1.0000
  Al  Al8       1.0  0.0026496661892548416  0.0033525334017976737  0.9996532115813435  1.0000
  Al  Al9       1.0  0.005775711935142926  8.232800090868886e-05  0.9998189524717154  1.0000
  Al  Al10      1.0  0.0033373799510624243  0.007566276426949126  5.515437041392512e-05  1.0000
  Al  Al11      1.0  0.008275711771965665  0.0025823281147039504  0.9995978411011366  1.0000
  Al  Al12      1.0  0.0007757112874878698  0.005082328248029291  0.9993767299977636  1.0000
  Al  Al13      1.0  0.009578277529727348  0.0049022607091446894  0.9999818434004384  1.0000
  Al  Al14      1.0  0.007107684870828914  0.002411343364669766  0.00015942542604321816  1.0000
  Al  Al15      1.0  0.0017242881269907552  0.007417672001955723  0.9997350560235424  1.0000
  Al  Al16      1.0  0.004224287375306484  0.009917672135281063  0.9995139446378415  1.0000
  Au  Au1       1.0  0.005033323383260286  0.007754914285404971  0.9998846124514921  1.0000
  Au  Au2       1.0  0.0027508544457633473  0.005285804383646548  0.0001280806667586569  1.0000
  Au  Au3       1.0  0.0075333251114771006  0.0002549137031482086  0.999663501391757  1.0000
  Au  Au4       1.0  3.332439109502992e-05  0.0027549138104334438  0.9994423900059172  1.0000
  Au  Au5       1.0  0.009966675446715033  0.007245086514547075  0.9998905074001001  1.0000
  Au  Au6       1.0  0.0076034129758119715  0.004700849033103295  0.00010910505076444104  1.0000
  Au  Au7       1.0  0.0024666738488769205  0.009745086647872415  0.999669395991597  1.0000
  Au  Au8       1.0  0.004966674940556663  0.002245086456217238  0.9994482846543163  1.0000
  Au  Au9       1.0  0.0023601296520182756  0.009793327922635464  0.00011762101297512845  1.0000
  Au  Au10      1.0  0.009862365132429284  0.007330540558528651  0.9994575104006591  1.0000
  Au  Au11      1.0  0.00486236586192395  0.002330540083557124  0.9998997328682209  1.0000
  Au  Au12      1.0  0.007362365449726116  0.00483054000856162  0.999678621758937  1.0000
  Au  Au13      1.0  0.0026376337702574307  0.005169460524739744  0.9996542756382899  1.0000
  Au  Au14      1.0  0.00013763374806782325  0.0026694601830935575  0.9998753872704053  1.0000
  Au  Au15      1.0  0.005137633697546034  0.007669460241423394  0.9994331642551685  1.0000
  Au  Au16      1.0  0.007719133890711937  0.00016929470811739738  0.00011889703270995384  1.0000
