data_image0
_chemical_formula_structural       COAl4Na4Se8
_chemical_formula_sum              "C1 O1 Al4 Na4 Se8"
_cell_length_a       6.370626951892197
_cell_length_b       6.370626864895722
_cell_length_c       109.75028228759766
_cell_angle_alpha    87.07296321250693
_cell_angle_beta     87.07296325251299
_cell_angle_gamma    75.2099088902752

_space_group_name_H-M_alt    "P 1"
_space_group_IT_number       1

loop_
  _space_group_symop_operation_xyz
  'x, y, z'

loop_
  _atom_site_type_symbol
  _atom_site_label
  _atom_site_symmetry_multiplicity
  _atom_site_fract_x
  _atom_site_fract_y
  _atom_site_fract_z
  _atom_site_occupancy
  C   C1        1.0  0.0010836629790870287  0.0009419972080806766  1.3287497302381405e-05  1.0000
  O   O1        1.0  0.0010836629790870287  0.0009419972080806766  0.00012262684539853782  1.0000
  Al  Al1       1.0  0.004819862588126285  0.004327899668243167  0.999232742864283  1.0000
  Al  Al2       1.0  0.008582441584869534  0.00797960674847391  0.9996830069830301  1.0000
  Al  Al3       1.0  0.0010212210980193631  0.009559842203321234  0.9998765573493408  1.0000
  Al  Al4       1.0  0.006694862413295748  0.006202899341398208  0.9994591107854142  1.0000
  Na  Na1       1.0  0.009819862087085874  0.009327899704559273  0.9992327427923429  1.0000
  Na  Na2       1.0  0.00378678342974289  0.002926106731894397  0.9997298992177887  1.0000
  Na  Na3       1.0  0.005758247796151853  0.00598311365930309  0.9999572036161095  1.0000
  Na  Na4       1.0  0.0016948626529548869  0.001202899759033433  0.9994591108567834  1.0000
  Se  Se1       1.0  0.005125322216078094  0.0080042411740821  0.9992696211119472  1.0000
  Se  Se2       1.0  0.00884696316135533  0.0016654975018973472  0.99972208608879  1.0000
  Se  Se3       1.0  0.001143521298601274  0.00402244005392293  0.9991958648874839  1.0000
  Se  Se4       1.0  0.004893521165035537  0.007772439702867233  0.9996486004566619  1.0000
  Se  Se5       1.0  0.003542023649601967  0.0004401578314817026  0.9999881964077737  1.0000
  Se  Se6       1.0  0.00037120386567026764  0.006508359560986887  0.9994959885617074  1.0000
  Se  Se7       1.0  0.0001801373062327662  0.006148523235064338  0.9998732769686003  1.0000
  Se  Se8       1.0  0.006389402632010335  0.0025265584408277176  0.9994222325364104  1.0000
