data_image0
_chemical_formula_structural       HCu8Au8Se32
_chemical_formula_sum              "H1 Cu8 Au8 Se32"
_cell_length_a       12.605702118925146
_cell_length_b       8.845516600290095
_cell_length_c       105.82367706298828
_cell_angle_alpha    112.24095966550797
_cell_angle_beta     101.7264884501367
_cell_angle_gamma    67.44467381743141

_space_group_name_H-M_alt    "P 1"
_space_group_IT_number       1

loop_
  _space_group_symop_operation_xyz
  'x, y, z'

loop_
  _atom_site_type_symbol
  _atom_site_label
  _atom_site_symmetry_multiplicity
  _atom_site_fract_x
  _atom_site_fract_y
  _atom_site_fract_z
  _atom_site_occupancy
  H   H1        1.0  0.0016476153314855318  0.0024518724830699433  0.0002110604777277932  1.0000
  Cu  Cu1       1.0  0.0077772863926954365  0.0012696758748539194  0.9996256232525926  1.0000
  Cu  Cu2       1.0  0.005277286739096645  0.008769676480765516  0.9993435214882893  1.0000
  Cu  Cu3       1.0  0.0002772867503226099  0.0037696761656379114  0.9999077252650783  1.0000
  Cu  Cu4       1.0  0.0023641393355086715  0.006692360006281872  0.00011092601998783891  1.0000
  Cu  Cu5       1.0  0.007969877766868107  0.003279470831812878  0.9992882062107707  1.0000
  Cu  Cu6       1.0  0.005549496185871232  0.00032725353798701296  9.507618075678982e-05  1.0000
  Cu  Cu7       1.0  0.0004698776433824909  0.005779470913000436  0.9995703082049774  1.0000
  Cu  Cu8       1.0  0.0029698774974449447  0.008279471369641992  0.9998524101316649  1.0000
  Au  Au1       1.0  0.006623581771869586  0.006024573901694926  0.9998800677954747  1.0000
  Au  Au2       1.0  0.004123582118270795  0.003524573342800984  0.9995979658704054  1.0000
  Au  Au3       1.0  0.008580740261127599  0.009160021462846364  0.00011208895299968195  1.0000
  Au  Au4       1.0  0.0016235821439301436  0.0010245732887624833  0.9993158639535435  1.0000
  Au  Au5       1.0  0.008179129756206627  0.0021639990871412385  4.218982596400009e-05  1.0000
  Au  Au6       1.0  0.00537358210544112  0.009774573440345569  0.9997390168930245  1.0000
  Au  Au7       1.0  0.0003735821567598179  0.0047745735597696515  0.9991748130664985  1.0000
  Au  Au8       1.0  0.0028735821311004694  0.00727457350005761  0.9994569149797615  1.0000
  Se  Se1       1.0  0.009158388011352846  0.0005232813841913997  0.9998203832507303  1.0000
  Se  Se2       1.0  0.006658388037012195  0.008023281243702487  0.9995382814550472  1.0000
  Se  Se3       1.0  0.001427404875764823  0.003183893187863407  0.00011469267016422898  1.0000
  Se  Se4       1.0  0.004158387741929683  0.005523281467018349  0.9992561795391951  1.0000
  Se  Se5       1.0  0.007824959538286089  0.00031731453056928194  0.9992329379700349  1.0000
  Se  Se6       1.0  0.005393239732545013  0.007736975855376206  7.940892932755794e-05  1.0000
  Se  Se7       1.0  0.0003249598357741635  0.0028173148520289908  0.9995150399820351  1.0000
  Se  Se8       1.0  0.002824959910346646  0.005317314741190756  0.9997971421777296  1.0000
  Se  Se9       1.0  0.007237201363155984  0.003887020048034303  0.0002597442408690546  1.0000
  Se  Se10      1.0  0.0040887761738700465  0.001525865154686356  0.9999397519102065  1.0000
  Se  Se11      1.0  0.009088776122551349  0.006525865262763357  0.9993755481258961  1.0000
  Se  Se12      1.0  0.0015887763599003251  0.00902586561489878  0.9996576501374109  1.0000
  Se  Se13      1.0  0.007922204621277455  0.004231832176097515  0.9996808914933285  1.0000
  Se  Se14      1.0  0.0054222046469368035  0.0017318317808073917  0.9993987895656701  1.0000
  Se  Se15      1.0  0.00021742445183368686  0.006876582699341018  0.9999779691694926  1.0000
  Se  Se16      1.0  0.0020495074477594136  0.009526983243987389  0.00025270531277552297  1.0000
  Se  Se17      1.0  0.0067575530807763694  0.004992005498899912  0.9994814501586957  1.0000
  Se  Se18      1.0  0.004257553427177578  0.0024920053950081332  0.9991993482480217  1.0000
  Se  Se19      1.0  0.00925755305511702  0.007492005439187871  0.9997635520719587  1.0000
  Se  Se20      1.0  0.0016652598223063412  0.00022542673808496097  4.744785911350821e-05  1.0000
  Se  Se21      1.0  0.008989611078787174  0.009557141007565932  0.9994323797038701  1.0000
  Se  Se22      1.0  0.006489611104446523  0.007057141067277974  0.999150277790607  1.0000
  Se  Se23      1.0  0.0014896109953942906  0.002057141041002883  0.9997144818552453  1.0000
  Se  Se24      1.0  0.00397565661401122  0.004555786898053719  0.999994835253984  1.0000
  Se  Se25      1.0  0.009782575405436186  0.002352965102621864  0.9991836585760862  1.0000
  Se  Se26      1.0  0.0069867898539157855  0.0012859498538887327  0.00025304891348602935  1.0000
  Se  Se27      1.0  0.002282575482414232  0.004852965536559198  0.9994657605863063  1.0000
  Se  Se28      1.0  0.004782575456754883  0.007352965021844993  0.999747862485174  1.0000
  Se  Se29      1.0  0.005964588754127358  0.0021961811490427696  0.9997301708728819  1.0000
  Se  Se30      1.0  0.0034645887797867063  0.009696181918558186  0.9994480691059895  1.0000
  Se  Se31      1.0  0.008460165056737542  0.004757546389355112  1.7318506258903982e-05  1.0000
  Se  Se32      1.0  0.0009645887252605902  0.007196181109166854  0.9991659671632885  1.0000
