data_image0
_chemical_formula_structural       COCu8Pd8Cu8Pd8
_chemical_formula_sum              "C1 O1 Cu16 Pd16"
_cell_length_a       8.620231628417969
_cell_length_b       5.278792136999015
_cell_length_c       104.88265991210938
_cell_angle_alpha    92.89141693503578
_cell_angle_beta     90.0
_cell_angle_gamma    90.0

_space_group_name_H-M_alt    "P 1"
_space_group_IT_number       1

loop_
  _space_group_symop_operation_xyz
  'x, y, z'

loop_
  _atom_site_type_symbol
  _atom_site_label
  _atom_site_symmetry_multiplicity
  _atom_site_fract_x
  _atom_site_fract_y
  _atom_site_fract_z
  _atom_site_occupancy
  C   C1        1.0  0.0012500002117567515  0.0008504006598286719  0.00017287983633651447  1.0000
  O   O1        1.0  0.0012500002117567515  0.0008504006598286719  0.0002872936424771193  1.0000
  Cu  Cu1       1.0  0.0012499994554826391  0.0008648479753769694  0.9995457714166665  1.0000
  Cu  Cu2       1.0  0.0037499994468395063  0.0005077050760899678  0.9991894275880425  1.0000
  Cu  Cu3       1.0  0.0012499994554826391  0.007293419102630383  0.9993082088995491  1.0000
  Cu  Cu4       1.0  0.0037499994468395063  0.004079133759818804  0.999426990300743  1.0000
  Cu  Cu5       1.0  0.0012499998876392747  0.008199061436356493  7.006419866882784e-06  1.0000
  Cu  Cu6       1.0  0.0037499994468395063  0.007650562311058564  0.9996645524448087  1.0000
  Cu  Cu7       1.0  0.0012499994554826391  0.004515675022222551  0.9997788208213345  1.0000
  Cu  Cu8       1.0  0.0037500003111527774  0.000995890889791609  0.9999088580560928  1.0000
  Pd  Pd1       1.0  0.0012499994554826391  0.002293419307546822  0.9993082090861871  1.0000
  Pd  Pd2       1.0  0.0037499994468395063  0.009079133731554468  0.9994269901145535  1.0000
  Pd  Pd3       1.0  0.0012499994554826391  0.005864848035438684  0.9995457715148505  1.0000
  Pd  Pd4       1.0  0.0037499994468395063  0.005507705180314708  0.9991894276863387  1.0000
  Pd  Pd5       1.0  0.0012499998876392747  0.009492294734892283  0.9997783091951533  1.0000
  Pd  Pd6       1.0  0.003749999878996142  0.006060036949627797  0.9999067040579754  1.0000
  Pd  Pd7       1.0  0.001250000535874228  0.003170293669733807  8.048854903389967e-06  1.0000
  Pd  Pd8       1.0  0.0037499994468395063  0.002650562162670798  0.9996645529146989  1.0000
  Cu  Cu9       1.0  0.006249999222118056  0.0008648479753769694  0.9995457714166665  1.0000
  Cu  Cu10      1.0  0.008749998997396605  0.0005077050760899678  0.9991894275880425  1.0000
  Cu  Cu11      1.0  0.006249999222118056  0.007293419102630383  0.9993082088995491  1.0000
  Cu  Cu12      1.0  0.008749998997396605  0.004079133759818804  0.999426990300743  1.0000
  Cu  Cu13      1.0  0.006249999654274692  0.008199061436356493  7.006419866882784e-06  1.0000
  Cu  Cu14      1.0  0.008749998997396605  0.007650562311058564  0.9996645524448087  1.0000
  Cu  Cu15      1.0  0.006249999222118056  0.004515675022222551  0.9997788208213345  1.0000
  Cu  Cu16      1.0  0.008749999861709877  0.000995890889791609  0.9999088580560928  1.0000
  Pd  Pd9       1.0  0.006249999222118056  0.002293419307546822  0.9993082090861871  1.0000
  Pd  Pd10      1.0  0.008749998997396605  0.009079133731554468  0.9994269901145535  1.0000
  Pd  Pd11      1.0  0.006249999222118056  0.005864848035438684  0.9995457715148505  1.0000
  Pd  Pd12      1.0  0.008749998997396605  0.005507705180314708  0.9991894276863387  1.0000
  Pd  Pd13      1.0  0.006249999654274692  0.009492294734892283  0.9997783091951533  1.0000
  Pd  Pd14      1.0  0.008749999861709877  0.006060036949627797  0.9999067040579754  1.0000
  Pd  Pd15      1.0  0.006250000518587963  0.003170293669733807  8.048854903389967e-06  1.0000
  Pd  Pd16      1.0  0.008749998997396605  0.002650562162670798  0.9996645529146989  1.0000
