data_image0
_chemical_formula_structural       COFe3Pd9Fe3Pd9Fe3Pd9Fe3Pd9
_chemical_formula_sum              "C1 O1 Fe12 Pd36"
_cell_length_a       8.655835034278814
_cell_length_b       7.742014408111572
_cell_length_c       102.84658813476562
_cell_angle_alpha    90.0
_cell_angle_beta     108.4349498210443
_cell_angle_gamma    90.0

_space_group_name_H-M_alt    "P 1"
_space_group_IT_number       1

loop_
  _space_group_symop_operation_xyz
  'x, y, z'

loop_
  _atom_site_type_symbol
  _atom_site_label
  _atom_site_symmetry_multiplicity
  _atom_site_fract_x
  _atom_site_fract_y
  _atom_site_fract_z
  _atom_site_occupancy
  C   C1        1.0  0.004833673589968567  0.0012500000192471371  0.00015534238919045465  1.0000
  O   O1        1.0  0.004833673589968567  0.0012500000192471371  0.00027202068578427137  1.0000
  Fe  Fe1       1.0  0.007500000362927506  0.0012500000192471371  0.9998003908023807  1.0000
  Fe  Fe2       1.0  0.004166666817886461  0.0012500000192471371  0.9999778213757927  1.0000
  Fe  Fe3       1.0  0.0008333333862602614  0.0012500000192471371  0.9996229604700851  1.0000
  Pd  Pd1       1.0  0.005833333363577292  0.003750000057741411  0.9998891063728242  1.0000
  Pd  Pd2       1.0  0.0025000000453659385  0.003750000057741411  6.653637272427621e-05  1.0000
  Pd  Pd3       1.0  0.009166666908618337  0.003750000057741411  0.9997116757994121  1.0000
  Pd  Pd4       1.0  0.007500000362927506  0.0012500000192471371  6.653654344977436e-05  1.0000
  Pd  Pd5       1.0  0.004166666817886461  0.0012500000192471371  0.9997116756347236  1.0000
  Pd  Pd6       1.0  0.0008333333862602614  0.0012500000192471371  0.9998891062111542  1.0000
  Pd  Pd7       1.0  0.009166666908618337  0.003750000057741411  0.9999778215404813  1.0000
  Pd  Pd8       1.0  0.005833333363577292  0.003750000057741411  0.9996229606317552  1.0000
  Pd  Pd9       1.0  0.0025000000453659385  0.003750000057741411  0.9998003912112042  1.0000
  Fe  Fe4       1.0  0.007500000362927506  0.0012500000192471371  0.999268100189566  1.0000
  Fe  Fe5       1.0  0.004166666817886461  0.0012500000192471371  0.9994455304732036  1.0000
  Fe  Fe6       1.0  0.0008333333862602614  0.0012500000192471371  0.9990906698572705  1.0000
  Pd  Pd10      1.0  0.005833333363577292  0.003750000057741411  0.9993568151804606  1.0000
  Pd  Pd11      1.0  0.0025000000453659385  0.003750000057741411  0.9995342454701351  1.0000
  Pd  Pd12      1.0  0.009166666908618337  0.003750000057741411  0.999179384896823  1.0000
  Pd  Pd13      1.0  0.007500000362927506  0.0012500000192471371  0.9995342456408606  1.0000
  Pd  Pd14      1.0  0.004166666817886461  0.0012500000192471371  0.999179385021909  1.0000
  Pd  Pd15      1.0  0.0008333333862602614  0.0012500000192471371  0.999356815308565  1.0000
  Pd  Pd16      1.0  0.009166666908618337  0.003750000057741411  0.9994455303481176  1.0000
  Pd  Pd17      1.0  0.005833333363577292  0.003750000057741411  0.9990906697291659  1.0000
  Pd  Pd18      1.0  0.0025000000453659385  0.003750000057741411  0.9992681000188405  1.0000
  Fe  Fe7       1.0  0.007500000362927506  0.006250000096235685  0.9998003908023807  1.0000
  Fe  Fe8       1.0  0.004166666817886461  0.006250000096235685  0.9999778213757927  1.0000
  Fe  Fe9       1.0  0.0008333333862602614  0.006250000096235685  0.9996229604700851  1.0000
  Pd  Pd19      1.0  0.005833333363577292  0.008749999653551534  0.9998891063728242  1.0000
  Pd  Pd20      1.0  0.0025000000453659385  0.008749999653551534  6.653637272427621e-05  1.0000
  Pd  Pd21      1.0  0.009166666908618337  0.008749999653551534  0.9997116757994121  1.0000
  Pd  Pd22      1.0  0.007500000362927506  0.006250000096235685  6.653654344977436e-05  1.0000
  Pd  Pd23      1.0  0.004166666817886461  0.006250000096235685  0.9997116756347236  1.0000
  Pd  Pd24      1.0  0.0008333333862602614  0.006250000096235685  0.9998891062111542  1.0000
  Pd  Pd25      1.0  0.009166666908618337  0.008749999653551534  0.9999778215404813  1.0000
  Pd  Pd26      1.0  0.005833333363577292  0.008749999653551534  0.9996229606317552  1.0000
  Pd  Pd27      1.0  0.0025000000453659385  0.008749999653551534  0.9998003912112042  1.0000
  Fe  Fe10      1.0  0.007500000362927506  0.006250000096235685  0.999268100189566  1.0000
  Fe  Fe11      1.0  0.004166666817886461  0.006250000096235685  0.9994455304732036  1.0000
  Fe  Fe12      1.0  0.0008333333862602614  0.006250000096235685  0.9990906698572705  1.0000
  Pd  Pd28      1.0  0.005833333363577292  0.008749999653551534  0.9993568151804606  1.0000
  Pd  Pd29      1.0  0.0025000000453659385  0.008749999653551534  0.9995342454701351  1.0000
  Pd  Pd30      1.0  0.009166666908618337  0.008749999653551534  0.999179384896823  1.0000
  Pd  Pd31      1.0  0.007500000362927506  0.006250000096235685  0.9995342456408606  1.0000
  Pd  Pd32      1.0  0.004166666817886461  0.006250000096235685  0.999179385021909  1.0000
  Pd  Pd33      1.0  0.0008333333862602614  0.006250000096235685  0.999356815308565  1.0000
  Pd  Pd34      1.0  0.009166666908618337  0.008749999653551534  0.9994455303481176  1.0000
  Pd  Pd35      1.0  0.005833333363577292  0.008749999653551534  0.9990906697291659  1.0000
  Pd  Pd36      1.0  0.0025000000453659385  0.008749999653551534  0.9992681000188405  1.0000
