data_image0
_chemical_formula_structural       HZnAsPt5ZnAsPt5ZnAsPt5ZnAsPt5
_chemical_formula_sum              "H1 Zn4 As4 Pt20"
_cell_length_a       7.977616310119629
_cell_length_b       7.977616310119629
_cell_length_c       98.79414367675781
_cell_angle_alpha    90.0
_cell_angle_beta     90.0
_cell_angle_gamma    90.0

_space_group_name_H-M_alt    "P 1"
_space_group_IT_number       1

loop_
  _space_group_symop_operation_xyz
  'x, y, z'

loop_
  _atom_site_type_symbol
  _atom_site_label
  _atom_site_symmetry_multiplicity
  _atom_site_fract_x
  _atom_site_fract_y
  _atom_site_fract_z
  _atom_site_occupancy
  H   H1        1.0  0.0012500000747148552  0.0012500000747148552  0.0001247089962534981  1.0000
  Zn  Zn1       1.0  0.0012500000747148552  0.0037500002241445656  0.9994740839231792  1.0000
  As  As1       1.0  0.0037500002241445656  0.0012500000747148552  0.9998384039186832  1.0000
  Pt  Pt1       1.0  0.0012500000747148552  0.0012500000747148552  0.0  1.0000
  Pt  Pt2       1.0  0.0012500000747148552  0.0012500000747148552  0.9996768078373662  1.0000
  Pt  Pt3       1.0  0.0037500002241445656  0.0037500002241445656  0.0  1.0000
  Pt  Pt4       1.0  0.0037500002241445656  0.0037500002241445656  0.9996768078373662  1.0000
  Pt  Pt5       1.0  0.0037500002241445656  0.0012500000747148552  0.9994740839231792  1.0000
  Zn  Zn2       1.0  0.0012500000747148552  0.008750000523003986  0.9994740839231792  1.0000
  As  As2       1.0  0.0037500002241445656  0.006250000373574276  0.9998384039186832  1.0000
  Pt  Pt6       1.0  0.0012500000747148552  0.006250000373574276  0.0  1.0000
  Pt  Pt7       1.0  0.0012500000747148552  0.006250000373574276  0.9996768078373662  1.0000
  Pt  Pt8       1.0  0.0037500002241445656  0.008750000523003986  0.0  1.0000
  Pt  Pt9       1.0  0.0037500002241445656  0.008750000523003986  0.9996768078373662  1.0000
  Pt  Pt10      1.0  0.0037500002241445656  0.006250000373574276  0.9994740839231792  1.0000
  Zn  Zn3       1.0  0.006250000373574276  0.0037500002241445656  0.9994740839231792  1.0000
  As  As3       1.0  0.008750000523003986  0.0012500000747148552  0.9998384039186832  1.0000
  Pt  Pt11      1.0  0.006250000373574276  0.0012500000747148552  0.0  1.0000
  Pt  Pt12      1.0  0.006250000373574276  0.0012500000747148552  0.9996768078373662  1.0000
  Pt  Pt13      1.0  0.008750000523003986  0.0037500002241445656  0.0  1.0000
  Pt  Pt14      1.0  0.008750000523003986  0.0037500002241445656  0.9996768078373662  1.0000
  Pt  Pt15      1.0  0.008750000523003986  0.0012500000747148552  0.9994740839231792  1.0000
  Zn  Zn4       1.0  0.006250000373574276  0.008750000523003986  0.9994740839231792  1.0000
  As  As4       1.0  0.008750000523003986  0.006250000373574276  0.9998384039186832  1.0000
  Pt  Pt16      1.0  0.006250000373574276  0.006250000373574276  0.0  1.0000
  Pt  Pt17      1.0  0.006250000373574276  0.006250000373574276  0.9996768078373662  1.0000
  Pt  Pt18      1.0  0.008750000523003986  0.008750000523003986  0.0  1.0000
  Pt  Pt19      1.0  0.008750000523003986  0.008750000523003986  0.9996768078373662  1.0000
  Pt  Pt20      1.0  0.008750000523003986  0.006250000373574276  0.9994740839231792  1.0000
