data_image0
_chemical_formula_structural       COAu16Se16
_chemical_formula_sum              "C1 O1 Au16 Se16"
_cell_length_a       7.5180186232166575
_cell_length_b       10.87167328725001
_cell_length_c       104.18489837646484
_cell_angle_alpha    85.94946897739528
_cell_angle_beta     83.83010806046708
_cell_angle_gamma    80.88270291735861

_space_group_name_H-M_alt    "P 1"
_space_group_IT_number       1

loop_
  _space_group_symop_operation_xyz
  'x, y, z'

loop_
  _atom_site_type_symbol
  _atom_site_label
  _atom_site_symmetry_multiplicity
  _atom_site_fract_x
  _atom_site_fract_y
  _atom_site_fract_z
  _atom_site_occupancy
  C   C1        1.0  0.008138665197962566  0.0027421064787957173  4.4056291719404275e-06  1.0000
  O   O1        1.0  0.008138665197962566  0.0027421064787957173  0.00011958570330642601  1.0000
  Au  Au1       1.0  0.006874999609300161  0.001857318100208774  0.9991989963777993  1.0000
  Au  Au2       1.0  0.00937499986630452  0.00019065135302324788  0.9994724276642987  1.0000
  Au  Au3       1.0  0.0018256023790658975  0.008552967186187045  0.9997446377772228  1.0000
  Au  Au4       1.0  0.004374999860286584  0.0035239848039488723  0.9989255650876804  1.0000
  Au  Au5       1.0  0.0005691875682366486  0.004495365828463071  0.999599225722442  1.0000
  Au  Au6       1.0  0.002041698984825239  0.0029772147124919788  0.999813235618459  1.0000
  Au  Au7       1.0  0.005624999703310646  0.007690651910862539  0.9990622804578527  1.0000
  Au  Au8       1.0  0.008124999950726084  0.006023985207122441  0.9993357117441063  1.0000
  Au  Au9       1.0  0.003124999591876744  0.006023985207122441  0.9993357117983788  1.0000
  Au  Au10      1.0  0.005523819155839016  0.004398363310502328  0.9996186788156184  1.0000
  Au  Au11      1.0  0.008367872004326706  0.0028303517887915924  0.9998369397204201  1.0000
  Au  Au12      1.0  0.000624999842863167  0.007690651910862539  0.9990622805082598  1.0000
  Au  Au13      1.0  0.0018749999980536129  0.001857318100208774  0.9991989961402215  1.0000
  Au  Au14      1.0  0.004375000005857039  0.00019065135302324788  0.9994724277147058  1.0000
  Au  Au15      1.0  0.00688842926155415  0.008270448173744964  0.9997490110192857  1.0000
  Au  Au16      1.0  0.009374999720734065  0.0035239848039488723  0.9989255650372734  1.0000
  Se  Se1       1.0  0.006620854069264879  0.0039760153628815706  0.9990758511170775  1.0000
  Se  Se2       1.0  0.009120853818278457  0.002309348659141472  0.9993492824071964  1.0000
  Se  Se3       1.0  0.0016149557514726109  0.000637780659478625  0.9996214357757853  1.0000
  Se  Se4       1.0  0.004184604851042937  0.008495535806439672  0.9999049264470071  1.0000
  Se  Se5       1.0  0.003379145707025241  0.003905287596886223  0.999458857057202  1.0000
  Se  Se6       1.0  0.005350150304411834  0.0023471586934987556  0.9997553217275078  1.0000
  Se  Se7       1.0  0.008379145853181691  0.007238621351929841  0.9989119943741831  1.0000
  Se  Se8       1.0  0.0008791457088107341  0.005571954300626321  0.9991854257690158  1.0000
  Se  Se9       1.0  0.005370853800855038  0.006476015766055139  0.9994859978277759  1.0000
  Se  Se10      1.0  0.007879162425461413  0.005027703696410948  0.9997511857372671  1.0000
  Se  Se11      1.0  0.00037085405362695406  0.009809349173535336  0.998939135535523  1.0000
  Se  Se12      1.0  0.002870854051841461  0.008142682469795237  0.9992125668237093  1.0000
  Se  Se13      1.0  0.009629145410496783  0.008071954703799891  0.9995955729490718  1.0000
  Se  Se14      1.0  0.002699100317913984  0.00673003596819847  0.9998989039956507  1.0000
  Se  Se15      1.0  0.004629145400321867  0.001405287541276076  0.99904871006235  1.0000
  Se  Se16      1.0  0.0071291451630813435  0.009738621407539989  0.9993221416628182  1.0000
