data_image0
_chemical_formula_structural       COCr6Ge2Cr6Ge2
_chemical_formula_sum              "C1 O1 Cr12 Ge4"
_cell_length_a       4.606474876403809
_cell_length_b       4.606474876403809
_cell_length_c       102.24532318115234
_cell_angle_alpha    90.0
_cell_angle_beta     90.0
_cell_angle_gamma    90.0

_space_group_name_H-M_alt    "P 1"
_space_group_IT_number       1

loop_
  _space_group_symop_operation_xyz
  'x, y, z'

loop_
  _atom_site_type_symbol
  _atom_site_label
  _atom_site_symmetry_multiplicity
  _atom_site_fract_x
  _atom_site_fract_y
  _atom_site_fract_z
  _atom_site_occupancy
  C   C1        1.0  0.0024999761754801366  0.006430884472667916  9.034320526382907e-05  1.0000
  O   O1        1.0  0.0024999761754801366  0.006430884472667916  0.0002077076415108489  1.0000
  Cr  Cr1       1.0  5.899999837677539e-09  0.0050000037038798704  0.999195840016199  1.0000
  Cr  Cr2       1.0  5.899999837677539e-09  0.0050000037038798704  0.9994211057448685  1.0000
  Cr  Cr3       1.0  0.005000005725648358  0.0025000036715315745  0.9995337386092034  1.0000
  Cr  Cr4       1.0  0.005000005725648358  0.007500003331874469  0.9995337386092034  1.0000
  Cr  Cr5       1.0  0.007500005757996654  3.6499999682077698e-09  0.9993084728805337  1.0000
  Cr  Cr6       1.0  0.0025000058954769114  3.6499999682077698e-09  0.9993084728805337  1.0000
  Ge  Ge1       1.0  5.899999837677539e-09  3.6499999682077698e-09  0.9995337386092034  1.0000
  Ge  Ge2       1.0  0.005000005725648358  0.0050000037038798704  0.9993084728805337  1.0000
  Cr  Cr7       1.0  5.899999837677539e-09  0.0050000037038798704  0.9996463711820596  1.0000
  Cr  Cr8       1.0  0.009999979103000907  0.004999989147146756  0.999879364008086  1.0000
  Cr  Cr9       1.0  0.004999974186059944  0.002138200720049774  0.9999625176025085  1.0000
  Cr  Cr10      1.0  0.00499997337735255  0.007861779393835379  0.99996251935138  1.0000
  Cr  Cr11      1.0  0.00757983973463839  3.3849999398775334e-08  0.9997574216091424  1.0000
  Cr  Cr12      1.0  0.0024201377509477273  3.4150000769609555e-08  0.9997574221920995  1.0000
  Ge  Ge3       1.0  0.009999993659734021  0.009999996085856208  0.0  1.0000
  Ge  Ge4       1.0  0.004999994808098523  0.004999932133275393  0.9997543424293431  1.0000
