data_image0
_chemical_formula_structural       CONa12Sn4Na12Sn4
_chemical_formula_sum              "C1 O1 Na24 Sn8"
_cell_length_a       4.970526695251465
_cell_length_b       19.961227501431594
_cell_length_c       104.79368591308594
_cell_angle_alpha    104.41888180742124
_cell_angle_beta     90.0
_cell_angle_gamma    90.0

_space_group_name_H-M_alt    "P 1"
_space_group_IT_number       1

loop_
  _space_group_symop_operation_xyz
  'x, y, z'

loop_
  _atom_site_type_symbol
  _atom_site_label
  _atom_site_symmetry_multiplicity
  _atom_site_fract_x
  _atom_site_fract_y
  _atom_site_fract_z
  _atom_site_occupancy
  C   C1        1.0  3.0499999273478566e-09  0.0007942394071824544  0.00019774798841086456  1.0000
  O   O1        1.0  3.0499999273478566e-09  0.0007942394071824544  0.0003122583676335484  1.0000
  Na  Na1       1.0  1.4999999661002675e-10  0.0017615342886558442  0.9994375776151482  1.0000
  Na  Na2       1.0  1.4999999661002675e-10  0.006761534388857772  0.9992004198822022  1.0000
  Na  Na3       1.0  0.005  0.0017615342886558442  0.9992004198774495  1.0000
  Na  Na4       1.0  0.005  0.006761534388857772  0.9994375776199009  1.0000
  Na  Na5       1.0  1.4999999661002675e-10  0.0030115342655323224  0.9992597093107773  1.0000
  Na  Na6       1.0  1.4999999661002675e-10  0.008011534173038234  0.9994968670440889  1.0000
  Na  Na7       1.0  0.005  0.004261534049712785  0.9993189987349653  1.0000
  Na  Na8       1.0  0.005  0.009261533957218697  0.9995561564682769  1.0000
  Na  Na9       1.0  1.4999999661002675e-10  0.004261534049712785  0.999556156472664  1.0000
  Na  Na10      1.0  1.4999999661002675e-10  0.009261533957218697  0.9993189987305783  1.0000
  Na  Na11      1.0  0.005  0.0005115342154313583  0.9993782881772504  1.0000
  Na  Na12      1.0  0.005  0.0055115342192852785  0.9996154459151319  1.0000
  Sn  Sn1       1.0  1.4999999661002675e-10  0.0005115342154313583  0.999615445914949  1.0000
  Sn  Sn2       1.0  1.4999999661002675e-10  0.0055115342192852785  0.9993782881774331  1.0000
  Sn  Sn3       1.0  0.005  0.0030115342655323224  0.9994968670484761  1.0000
  Sn  Sn4       1.0  0.005  0.008011534173038234  0.9992597093063902  1.0000
  Na  Na13      1.0  1.4999999661002675e-10  0.0021468436534454217  2.0805849392303612e-05  1.0000
  Na  Na14      1.0  1.4999999661002675e-10  0.006761534388857772  0.9996747353575997  1.0000
  Na  Na15      1.0  0.005  0.0017615342886558442  0.9996747353528469  1.0000
  Na  Na16      1.0  0.004999999625262017  0.0067289502633886295  0.9999041364926047  1.0000
  Na  Na17      1.0  1.4999999661002675e-10  0.0030115342655323224  0.9997340247861748  1.0000
  Na  Na18      1.0  1.4999999661002675e-10  0.008063931302840638  0.9999525438433785  1.0000
  Na  Na19      1.0  0.005  0.004261534049712785  0.9997933142103628  1.0000
  Na  Na20      1.0  0.0050000011242139495  0.00948846588862449  3.4111695859082425e-05  1.0000
  Na  Na21      1.0  0.01  0.0041428151906221745  4.370625304359661e-05  1.0000
  Na  Na22      1.0  1.4999999661002675e-10  0.009261533957218697  0.9997933142059756  1.0000
  Na  Na23      1.0  0.005000001498951933  0.0007805935906573522  0.9998510874487921  1.0000
  Na  Na24      1.0  0.004999999250524034  0.005486477570973056  6.705422793276064e-05  1.0000
  Sn  Sn5       1.0  3.0499999273478566e-09  0.000571145113277139  2.7090296592496693e-05  1.0000
  Sn  Sn6       1.0  0.009999997751572101  0.005510272445774539  0.9998582543649843  1.0000
  Sn  Sn7       1.0  0.005  0.0030642751650267175  0.999941881861074  1.0000
  Sn  Sn8       1.0  0.005  0.008011534173038234  0.9997340247817876  1.0000
