data_image0
_chemical_formula_structural       HV3Si6V3Si6
_chemical_formula_sum              "H1 V6 Si12"
_cell_length_a       4.582751862097735
_cell_length_b       6.397009372711182
_cell_length_c       33.33798599243164
_cell_angle_alpha    90.0
_cell_angle_beta     60.0000008023276
_cell_angle_gamma    90.0

_space_group_name_H-M_alt    "P 1"
_space_group_IT_number       1

loop_
  _space_group_symop_operation_xyz
  'x, y, z'

loop_
  _atom_site_type_symbol
  _atom_site_label
  _atom_site_symmetry_multiplicity
  _atom_site_fract_x
  _atom_site_fract_y
  _atom_site_fract_z
  _atom_site_occupancy
  H   H1        1.0  0.0068192321320911095  0.0064521444260635516  0.00013108698256069701  1.0000
  V   V1        1.0  0.005814209095546222  0.003341131510854496  0.9985823904896177  1.0000
  V   V2        1.0  0.00571703547530894  0.00668797469807501  0.9992712727153363  1.0000
  V   V3        1.0  0.0009009077562084788  0.009992201605068644  0.9992709646705461  1.0000
  Si  Si1       1.0  0.007557371962442273  7.798149980920392e-06  0.9988062383145777  1.0000
  Si  Si2       1.0  0.009001326904024375  0.0064521444260635516  0.9996811496442276  1.0000
  Si  Si3       1.0  0.009107109811340296  0.003341465779026814  0.9990517237542084  1.0000
  Si  Si4       1.0  0.004636019429400032  0.00022954705676152162  0.999681358583534  1.0000
  Si  Si5       1.0  0.002442628018784751  0.006674464789835281  0.9988062385485581  1.0000
  Si  Si6       1.0  0.002493809723596905  0.0033417569533929444  0.9994953344984218  1.0000
  V   V4        1.0  0.005814209095546222  0.003341131510854496  0.9972077566744771  1.0000
  V   V5        1.0  0.005814209095546222  0.006674464789835281  0.9978950733585612  1.0000
  V   V6        1.0  0.0008142093395949171  7.798149980920392e-06  0.9978950734133029  1.0000
  Si  Si7       1.0  0.007557371962442273  7.798149980920392e-06  0.9974316044994371  1.0000
  Si  Si8       1.0  0.009185790172307692  0.006674464789835281  0.9983585424306772  1.0000
  Si  Si9       1.0  0.009185790172307692  0.003341131510854496  0.9976554525358933  1.0000
  Si  Si10      1.0  0.004071046697974585  7.798149980920392e-06  0.9983585426324002  1.0000
  Si  Si11      1.0  0.002442628018784751  0.006674464789835281  0.9974316047334175  1.0000
  Si  Si12      1.0  0.002442628018784751  0.003341131510854496  0.9981346946282015  1.0000
