data_image0
_chemical_formula_structural       HCo20Cu10Ge20
_chemical_formula_sum              "H1 Co20 Cu10 Ge20"
_cell_length_a       10.846818815498594
_cell_length_b       7.788206266548998
_cell_length_c       107.15274047851562
_cell_angle_alpha    65.26940285474329
_cell_angle_beta     69.0443429302827
_cell_angle_gamma    79.63663175837578

_space_group_name_H-M_alt    "P 1"
_space_group_IT_number       1

loop_
  _space_group_symop_operation_xyz
  'x, y, z'

loop_
  _atom_site_type_symbol
  _atom_site_label
  _atom_site_symmetry_multiplicity
  _atom_site_fract_x
  _atom_site_fract_y
  _atom_site_fract_z
  _atom_site_occupancy
  H   H1        1.0  0.0055926836301670585  0.006859848816737193  0.999588936089798  1.0000
  Co  Co1       1.0  0.0023364984938379556  0.0006815237079567216  0.9993735656362587  1.0000
  Co  Co2       1.0  0.006305996531076117  0.00858349241609927  0.9995152606632214  1.0000
  Co  Co3       1.0  0.008323089102486322  0.0027033370295541175  0.999192085857457  1.0000
  Co  Co4       1.0  0.0003230890238361794  0.006703337086465749  0.9988453590868338  1.0000
  Co  Co5       1.0  0.00432308892853033  0.004703336926270045  0.999018722202896  1.0000
  Co  Co6       1.0  0.005681185836034192  0.005629046775358271  0.9992166867414561  1.0000
  Co  Co7       1.0  0.009647014049436995  0.0034512857678223956  0.9993956825925934  1.0000
  Co  Co8       1.0  0.001681185839397366  0.007629046935553976  0.9990433230724639  1.0000
  Co  Co9       1.0  0.0033989890522946676  0.0017458496749814644  0.9995371934338751  1.0000
  Co  Co10      1.0  0.007681185605808833  0.009629046568790125  0.9988699600510833  1.0000
  Co  Co11      1.0  0.003920482055792619  0.00802831681243464  0.999306311542846  1.0000
  Co  Co12      1.0  0.008100333892172837  0.006317709665487086  0.9994432253596572  1.0000
  Co  Co13      1.0  2.1373996001955086e-06  0.00016619201021942357  0.9991177042775741  1.0000
  Co  Co14      1.0  0.002002137407133853  0.004166192034196083  0.9987709775715833  1.0000
  Co  Co15      1.0  0.006002137584372937  0.002166192005740267  0.9989443412300312  1.0000
  Co  Co16      1.0  0.002002137460984289  0.009166191644246013  0.9992043861518551  1.0000
  Co  Co17      1.0  0.005960932861236923  0.007024598505721448  0.9993807746254693  1.0000
  Co  Co18      1.0  0.008002137303580233  0.0011661920573823037  0.999031022792497  1.0000
  Co  Co19      1.0  3.901040703885243e-05  0.005406005874393347  0.9995288436037302  1.0000
  Co  Co20      1.0  0.004002137497394941  0.0031661919540982306  0.9988576591246213  1.0000
  Cu  Cu1       1.0  0.004002137538113009  0.008166192091107714  0.9988576592747336  1.0000
  Cu  Cu2       1.0  0.008002137350864484  0.00616619193091201  0.9990310229503832  1.0000
  Cu  Cu3       1.0  0.009997862555197363  0.009833808296734517  0.9995426220942291  1.0000
  Cu  Cu4       1.0  0.002002137407133853  0.004166192034196083  0.999204385986195  1.0000
  Cu  Cu5       1.0  0.005908096857206983  0.0020617650895585044  0.9993943322290841  1.0000
  Cu  Cu6       1.0  0.006002137628374096  0.007166192011009862  0.9989443408277717  1.0000
  Cu  Cu7       1.0  2.1374038887896962e-06  0.0051661918508141575  0.9991177044380183  1.0000
  Cu  Cu8       1.0  0.002002137460984289  0.009166191644246013  0.9987709777372434  1.0000
  Cu  Cu9       1.0  0.004035014007792659  0.0031594471352826077  0.9992814859604101  1.0000
  Cu  Cu10      1.0  0.007979377110576355  0.0008395640820253269  0.9994687466813041  1.0000
  Ge  Ge1       1.0  0.003758123877696816  0.0013982331640553754  0.9991166668902994  1.0000
  Ge  Ge2       1.0  0.0077533843988109  0.009392799007474629  0.9992859582265898  1.0000
  Ge  Ge3       1.0  0.009758123814861264  0.0033982333242510796  0.9989433032904549  1.0000
  Ge  Ge4       1.0  0.001668823095112358  0.007412184108403994  0.9994666154507995  1.0000
  Ge  Ge5       1.0  0.005758123640905273  0.0053982332209670065  0.9987699396358939  1.0000
  Ge  Ge6       1.0  0.006246150867169154  0.008934151328012271  0.9991187420307308  1.0000
  Ge  Ge7       1.0  0.00028644502674663537  0.006861070835943679  0.9992865048507996  1.0000
  Ge  Ge8       1.0  0.002246151166716167  0.0009341508189693432  0.9989453786161191  1.0000
  Ge  Ge9       1.0  0.004240872803308283  0.004727327813899941  0.9994652691865874  1.0000
  Ge  Ge10      1.0  0.008246151291049057  0.002934150847425159  0.9987720155697629  1.0000
  Ge  Ge11      1.0  0.003610566001163763  0.0068409067285973135  0.999142247979623  1.0000
  Ge  Ge12      1.0  0.007510330052834195  0.004560701094983169  0.9993437760533864  1.0000
  Ge  Ge13      1.0  0.009610565938328212  0.008840906888793017  0.9989688843797785  1.0000
  Ge  Ge14      1.0  0.001321636191596019  0.002726444469491183  0.9995139343847709  1.0000
  Ge  Ge15      1.0  0.005610565673086807  0.0008409069067096436  0.9987955209695909  1.0000
  Ge  Ge16      1.0  0.004294771944685999  0.00923674204329857  0.9994646164495445  1.0000
  Ge  Ge17      1.0  0.00839370925558443  0.007491477293422411  0.998746434232179  1.0000
  Ge  Ge18      1.0  0.00039370900355547667  0.001491477076315075  0.9992665245501424  1.0000
  Ge  Ge19      1.0  0.002393708950649283  0.005491477133226706  0.9989197978453382  1.0000
  Ge  Ge20      1.0  0.0063937087568345765  0.0034914772365107795  0.9990931609569551  1.0000
