data_image0
_chemical_formula_structural       HCu24
_chemical_formula_sum              "H1 Cu24"
_cell_length_a       7.354173683730147
_cell_length_b       4.503493345643501
_cell_length_c       104.59198760986328
_cell_angle_alpha    87.51279395886371
_cell_angle_beta     93.04667183056046
_cell_angle_gamma    114.09484193759369

_space_group_name_H-M_alt    "P 1"
_space_group_IT_number       1

loop_
  _space_group_symop_operation_xyz
  'x, y, z'

loop_
  _atom_site_type_symbol
  _atom_site_label
  _atom_site_symmetry_multiplicity
  _atom_site_fract_x
  _atom_site_fract_y
  _atom_site_fract_z
  _atom_site_occupancy
  H   H1        1.0  0.00517535416532897  0.004527026967253018  0.0001633149929990785  1.0000
  Cu  Cu1       1.0  0.002916666649107674  0.0067857142753553245  0.9997833377751963  1.0000
  Cu  Cu2       1.0  0.0010119046765833845  0.008690476002288386  0.9999408295779326  1.0000
  Cu  Cu3       1.0  0.004821428381833894  0.004880952095217687  0.9996258459724108  1.0000
  Cu  Cu4       1.0  0.004464285788325218  0.002738095265719136  0.9998620837024408  1.0000
  Cu  Cu5       1.0  0.0025595238158009283  0.004642856992652198  1.9575505177107813e-05  1.0000
  Cu  Cu6       1.0  0.0013690476739231247  0.0008333333121837865  0.9997045921590975  1.0000
  Cu  Cu7       1.0  0.0036309522682011356  0.0010714285280504193  0.9993108626262249  1.0000
  Cu  Cu8       1.0  0.0017261904507397815  0.002976190368284625  0.999468354429329  1.0000
  Cu  Cu9       1.0  0.0005357142854845871  0.009166666207419363  0.9991533707734762  1.0000
  Cu  Cu10      1.0  0.00017857143834012823  0.007023809377920813  0.9993896085025584  1.0000
  Cu  Cu11      1.0  0.0032738095458233643  0.00892857155805845  0.9995471000454526  1.0000
  Cu  Cu12      1.0  0.002083333347455472  0.005119047650987751  0.9992321166995852  1.0000
  Cu  Cu13      1.0  0.007916666679543969  0.0067857142753553245  0.9997833380858935  1.0000
  Cu  Cu14      1.0  0.006011904580201788  0.008690476002288386  0.9999408298881558  1.0000
  Cu  Cu15      1.0  0.009821428919541752  0.004880952095217687  0.9996258462850035  1.0000
  Cu  Cu16      1.0  0.009464285311489948  0.002738095265719136  0.9998620840112422  1.0000
  Cu  Cu17      1.0  0.0075595239730551125  0.004642856992652198  1.957524647041277e-05  1.0000
  Cu  Cu18      1.0  0.006369047831177309  0.0008333333121837865  0.9997045919003907  1.0000
  Cu  Cu19      1.0  0.00863095229863743  0.0010714285280504193  0.9993108626519831  1.0000
  Cu  Cu20      1.0  0.0067261904811760755  0.002976190368284625  0.9994683541701483  1.0000
  Cu  Cu21      1.0  0.00553571418910299  0.009166666207419363  0.9991533707987605  1.0000
  Cu  Cu22      1.0  0.005178571341958532  0.007023809377920813  0.9993896085278428  1.0000
  Cu  Cu23      1.0  0.008273809386032822  0.00892857155805845  0.9995471003554388  1.0000
  Cu  Cu24      1.0  0.007083333187664929  0.005119047650987751  0.9992321167246325  1.0000
