data_image0
_chemical_formula_structural       COIn18Pt26
_chemical_formula_sum              "C1 O1 In18 Pt26"
_cell_length_a       9.104777638653763
_cell_length_b       7.284393033239996
_cell_length_c       108.7189712524414
_cell_angle_alpha    91.42075930796062
_cell_angle_beta     90.05837107632934
_cell_angle_gamma    72.52974211443703

_space_group_name_H-M_alt    "P 1"
_space_group_IT_number       1

loop_
  _space_group_symop_operation_xyz
  'x, y, z'

loop_
  _atom_site_type_symbol
  _atom_site_label
  _atom_site_symmetry_multiplicity
  _atom_site_fract_x
  _atom_site_fract_y
  _atom_site_fract_z
  _atom_site_occupancy
  C   C1        1.0  0.008785275377651948  0.0003835676831493557  3.4154812687446986e-05  1.0000
  O   O1        1.0  0.008785275377651948  0.0003835676831493557  0.00014453080848478417  1.0000
  In  In1       1.0  0.0069233735384150626  0.002675655114913362  0.9990983701183946  1.0000
  In  In2       1.0  0.00025670689534083304  0.00934232186821466  0.9996919338055595  1.0000
  In  In3       1.0  0.005566263204764262  0.00810581515187422  0.9991104222463943  1.0000
  In  In4       1.0  0.00889959660673014  0.004772481745027945  0.9997039856705676  1.0000
  In  In5       1.0  0.009011751621128149  0.005836748076875283  0.9993803441668975  1.0000
  In  In6       1.0  0.0023450854606264977  0.002503414004431723  0.9999739077567888  1.0000
  In  In7       1.0  0.0017636997138613141  0.0018855005486121614  0.9994515300226662  1.0000
  In  In8       1.0  0.008430366196078018  0.005218834244491033  0.9988579667062992  1.0000
  In  In9       1.0  0.005387725935590608  0.008861124150703913  0.9994159370054456  1.0000
  In  In10      1.0  0.008721059337556486  0.005527790232293269  9.500702891697663e-06  1.0000
  In  In11      1.0  0.0005187451988961526  0.008379926103899732  0.9991399406457129  1.0000
  In  In12      1.0  0.0038520783327661537  0.005046592797705543  0.9997335043441531  1.0000
  In  In13      1.0  0.007474231636703894  0.0019217521973094154  0.9994501723041331  1.0000
  In  In14      1.0  0.004140898234738016  0.00525508560415569  0.9988566086058372  1.0000
  In  In15      1.0  0.003301220234477322  0.00580049571530949  0.9993817024325371  1.0000
  In  In16      1.0  0.0066345536364432  0.002467162308463214  0.9999752655825879  1.0000
  In  In17      1.0  0.0018758554789277773  0.0029497658312871065  0.9991278890655622  1.0000
  In  In18      1.0  0.005209188666416954  0.009616433149533603  0.9997214525868647  1.0000
  Pt  Pt1       1.0  0.002865408510992792  0.009359749758972705  0.999251127066511  1.0000
  Pt  Pt2       1.0  0.006198741698481969  0.006026416944212466  0.9998446907657721  1.0000
  Pt  Pt3       1.0  0.004465511724387735  0.002559957153550721  0.9995360563552746  1.0000
  Pt  Pt4       1.0  0.001132178536898558  0.005893290479875328  0.9989424926568633  1.0000
  Pt  Pt5       1.0  0.007698825632652048  0.009324319905875952  0.9992512651233718  1.0000
  Pt  Pt6       1.0  0.0010321589359586435  0.005990985778954383  0.999844828713127  1.0000
  Pt  Pt7       1.0  0.002821299232663447  0.008912104061480589  0.9989716814301547  1.0000
  Pt  Pt8       1.0  0.006154632420152623  0.005578770223591616  0.9995652451277162  1.0000
  Pt  Pt9       1.0  0.004576710172699248  0.0016958309684064388  0.9989871836967755  1.0000
  Pt  Pt10      1.0  0.007910043145711722  0.008362497599828054  0.9995807474910413  1.0000
  Pt  Pt11      1.0  0.007880151956845613  0.008845976527774075  0.9989694160150192  1.0000
  Pt  Pt12      1.0  0.0012134857963439609  0.005512643222677065  0.9995629796061853  1.0000
  Pt  Pt13      1.0  0.004620819451028593  0.0021434774332451047  0.9992666296085291  1.0000
  Pt  Pt14      1.0  0.007954152424041069  0.008810144320448902  0.9998601931290972  1.0000
  Pt  Pt15      1.0  0.003076626238529168  0.00839792839553187  0.9995806094357647  1.0000
  Pt  Pt16      1.0  0.009743293042460924  0.0017312620934036875  0.998987045749363  1.0000
  Pt  Pt17      1.0  0.009561965860360554  0.002209604770463508  0.9992688951306004  1.0000
  Pt  Pt18      1.0  0.0028952994853822015  0.008876270911548353  0.9998624585426484  1.0000
  Pt  Pt19      1.0  0.007054392636573547  0.0021944572528863147  0.9997127192174831  1.0000
  Pt  Pt20      1.0  0.0037210592346076693  0.00552779065973259  0.9991191555191872  1.0000
  Pt  Pt21      1.0  0.006309940146793482  0.005162290759068182  0.9992958183813956  1.0000
  Pt  Pt22      1.0  0.009643273119805958  0.0018289575132652467  0.9998893820799224  1.0000
  Pt  Pt23      1.0  0.008721059337556486  0.005527790232293269  0.9991191555721539  1.0000
  Pt  Pt24      1.0  0.0020543927481014314  0.0021944570882395987  0.999712719163551  1.0000
  Pt  Pt25      1.0  0.0037210592346076693  0.00552779065973259  9.500649924951512e-06  1.0000
  Pt  Pt26      1.0  0.00038772599349931754  0.008861124006187611  0.9994159374997876  1.0000
