data_image0
_chemical_formula_structural       COAs16Se24
_chemical_formula_sum              "C1 O1 As16 Se24"
_cell_length_a       4.550530158353973
_cell_length_b       17.115339277475893
_cell_length_c       119.56855010986328
_cell_angle_alpha    84.4916929244358
_cell_angle_beta     89.70391563073649
_cell_angle_gamma    105.12261894161897

_space_group_name_H-M_alt    "P 1"
_space_group_IT_number       1

loop_
  _space_group_symop_operation_xyz
  'x, y, z'

loop_
  _atom_site_type_symbol
  _atom_site_label
  _atom_site_symmetry_multiplicity
  _atom_site_fract_x
  _atom_site_fract_y
  _atom_site_fract_z
  _atom_site_occupancy
  C   C1        1.0  0.00674340903578859  0.003943716780638972  0.9999444860980982  1.0000
  O   O1        1.0  0.00674340903578859  0.003943716780638972  4.4847140426290346e-05  1.0000
  As  As1       1.0  0.0014710287239037678  0.005339854738394341  0.9994202244949729  1.0000
  As  As2       1.0  0.006471028818696885  0.0003398547848516262  0.9987292882874053  1.0000
  As  As3       1.0  0.0013432406329355535  0.002438062005335519  0.9997715549377695  1.0000
  As  As4       1.0  0.006547506326437412  0.007708920650108581  0.9990566630887044  1.0000
  As  As5       1.0  0.008498730550564354  0.0046601447721045085  0.9987870284944181  1.0000
  As  As6       1.0  0.003498730483620918  0.009660144753974836  0.9994779652000888  1.0000
  As  As7       1.0  0.007915802295530775  0.00727375186126467  0.9998535419764747  1.0000
  As  As8       1.0  0.0034222529661629923  0.002291079087011172  0.9991505903960669  1.0000
  As  As9       1.0  0.0067925785221033454  0.005794643005288178  0.99965596955298  1.0000
  As  As10      1.0  0.001999784805168928  0.0008270848821210162  0.9989663335678052  1.0000
  As  As11      1.0  0.0044402907858926  0.0008655308350263062  0.9996856021432899  1.0000
  As  As12      1.0  0.009790589726934244  0.005993530042114213  0.9989893342017151  1.0000
  As  As13      1.0  0.0029699746255679523  0.004172914816473183  0.9985499838273929  1.0000
  As  As14      1.0  0.007969973986137217  0.009172914345101705  0.9992409199240708  1.0000
  As  As15      1.0  0.0051791692513654545  0.009006469450254963  0.9985269829200509  1.0000
  As  As16      1.0  0.00017916954753387728  0.004006469468384636  0.9992179192861735  1.0000
  Se  Se1       1.0  0.006074033609292162  0.006380723639050467  0.9994688914234515  1.0000
  Se  Se2       1.0  0.0010740340387170226  0.001380723883801042  0.9987779553299287  1.0000
  Se  Se3       1.0  0.006925531435373314  0.0023497079541862894  0.999653046081181  1.0000
  Se  Se4       1.0  0.002633188311577476  0.007356738622948997  0.9989128283630108  1.0000
  Se  Se5       1.0  0.003895725524468657  0.0036192758714483826  0.9987383615659672  1.0000
  Se  Se6       1.0  0.008895725330632818  0.00861927585331871  0.9994292981548274  1.0000
  Se  Se7       1.0  0.0023365704503523124  0.007643260416178374  0.9986034888818609  1.0000
  Se  Se8       1.0  0.0073365711856880934  0.002643261114170755  0.9992944251217203  1.0000
  Se  Se9       1.0  0.009496215175285067  0.004782709061517662  0.9996106145507827  1.0000
  Se  Se10      1.0  0.004457110634433923  0.009755411649146924  0.9989183512182614  1.0000
  Se  Se11      1.0  0.0009450756134598907  0.001041465253562176  0.999834819749545  1.0000
  Se  Se12      1.0  0.006608815770607798  0.006340755416884996  0.9991374256970256  1.0000
  Se  Se13      1.0  0.0005126477181655328  0.005244587389980447  0.998597965528193  1.0000
  Se  Se14      1.0  0.005512648063605779  0.0002445876913862475  0.999288902272076  1.0000
  Se  Se15      1.0  0.00982083013092454  0.008548382489498133  0.9998849789124498  1.0000
  Se  Se16      1.0  0.003360943127564001  0.0036592438669929505  0.999069827794051  1.0000
  Se  Se17      1.0  0.00345920510761089  0.004157013280956662  0.9993853095528012  1.0000
  Se  Se18      1.0  0.008459204468180154  0.009157012809585183  0.9986943731929737  1.0000
  Se  Se19      1.0  0.008629153992939934  0.002961585978433174  0.9985291803128747  1.0000
  Se  Se20      1.0  0.003629153293868719  0.0079615857336826  0.9992201165232859  1.0000
  Se  Se21      1.0  0.006510554013358357  0.005842986229542188  0.9988219439351177  1.0000
  Se  Se22      1.0  0.0015105545970897302  0.0008429866442584401  0.9995128802957346  1.0000
  Se  Se23      1.0  0.0007544619132199715  0.007048014326618141  0.9996914077972208  1.0000
  Se  Se24      1.0  0.006340605794066521  0.002038414003437154  0.998987136463028  1.0000
