data_image0
_chemical_formula_structural       HPt8V24
_chemical_formula_sum              "H1 Pt8 V24"
_cell_length_a       6.816593170166016
_cell_length_b       8.348587746854262
_cell_length_c       101.60724639892578
_cell_angle_alpha    95.05115255243228
_cell_angle_beta     90.0
_cell_angle_gamma    90.0

_space_group_name_H-M_alt    "P 1"
_space_group_IT_number       1

loop_
  _space_group_symop_operation_xyz
  'x, y, z'

loop_
  _atom_site_type_symbol
  _atom_site_label
  _atom_site_symmetry_multiplicity
  _atom_site_fract_x
  _atom_site_fract_y
  _atom_site_fract_z
  _atom_site_occupancy
  H   H1        1.0  0.00988200614538966  0.009241377452772504  0.00015128871238304827  1.0000
  Pt  Pt1       1.0  0.0001179941070265269  0.0052749515073281005  0.9996532183241605  1.0000
  Pt  Pt2       1.0  0.005172441186107562  0.0021540541724311053  0.9998561413524283  1.0000
  Pt  Pt3       1.0  0.00988200614538966  0.009058001501582775  2.936811932207255e-05  1.0000
  Pt  Pt4       1.0  0.005117994160652158  0.008399951686511168  0.9994587980880099  1.0000
  Pt  Pt5       1.0  0.0003538360204526348  0.004059249941686663  2.9365626737634468e-05  1.0000
  Pt  Pt6       1.0  0.005117994160652158  0.0033999516685928608  0.9994587980028207  1.0000
  Pt  Pt7       1.0  0.0001179941070265269  0.0002749515454045019  0.9996532185326854  1.0000
  Pt  Pt8       1.0  0.0050647062685828595  0.0071539162193875044  0.9998561641975322  1.0000
  V   V1        1.0  0.008867994510414236  0.007618701865694235  0.9995074032219952  1.0000
  V   V2        1.0  0.003867994226232548  0.0044937016865111675  0.9997018237514548  1.0000
  V   V3        1.0  0.008881132994966505  0.0014315595993128316  0.9998881801447072  1.0000
  V   V4        1.0  0.003867994226232548  0.0007437015610830204  0.9993129825189163  1.0000
  V   V5        1.0  0.006367994095071768  0.006056201776102701  0.999604613193416  1.0000
  V   V6        1.0  0.0013740104017580582  0.0028760262029290384  0.9997924043933081  1.0000
  V   V7        1.0  0.006324417019191865  0.009725048098469151  0.9999679175934928  1.0000
  V   V8        1.0  0.0013679940841417036  0.0091812015073281  0.9994101929540247  1.0000
  V   V9        1.0  0.0026179942918129373  0.00589995145357318  0.9994587978971404  1.0000
  V   V10       1.0  0.007617994575994626  0.0027749514983689467  0.9996532184282204  1.0000
  V   V11       1.0  0.002599361536870659  0.009686029193709454  0.9998475815905427  1.0000
  V   V12       1.0  0.007917777292424601  0.006376289480193649  2.8349622158780602e-05  1.0000
  V   V13       1.0  0.0026179942918129373  0.007774951292308419  0.9996532185117893  1.0000
  V   V14       1.0  0.007636480594815183  0.004685193734739337  0.9998475915935608  1.0000
  V   V15       1.0  0.002318974220663636  0.0013760641395680708  2.8352306564239237e-05  1.0000
  V   V16       1.0  0.007617994575994626  0.0008999515476442902  0.9994587981060704  1.0000
  V   V17       1.0  0.008867994510414236  0.004181201489409794  0.9994101928688354  1.0000
  V   V18       1.0  0.003867994226232548  0.0010562015342055603  0.9996046133999154  1.0000
  V   V19       1.0  0.008861680211902655  0.007876078631894563  0.9997924221628843  1.0000
  V   V20       1.0  0.003912396248763241  0.004725430188442101  0.9999679152863139  1.0000
  V   V21       1.0  0.0013679940841417036  0.002618701623797094  0.9995074031351856  1.0000
  V   V22       1.0  0.006367994095071768  0.009493701256471806  0.9997018235400944  1.0000
  V   V23       1.0  0.0013540331122032549  0.006431492647559693  0.999888225794938  1.0000
  V   V24       1.0  0.006367994095071768  0.005743701579001327  0.9993129826041055  1.0000
