data_image0
_chemical_formula_structural       HV12Sn4
_chemical_formula_sum              "H1 V12 Sn4"
_cell_length_a       4.98288106918335
_cell_length_b       7.046857833862305
_cell_length_c       98.18743133544922
_cell_angle_alpha    90.0
_cell_angle_beta     90.0
_cell_angle_gamma    90.0

_space_group_name_H-M_alt    "P 1"
_space_group_IT_number       1

loop_
  _space_group_symop_operation_xyz
  'x, y, z'

loop_
  _atom_site_type_symbol
  _atom_site_label
  _atom_site_symmetry_multiplicity
  _atom_site_fract_x
  _atom_site_fract_y
  _atom_site_fract_z
  _atom_site_occupancy
  H   H1        1.0  0.005000139610137323  0.0055827876287053236  0.00012547898159099143  1.0000
  V   V1        1.0  1.1895000299560383e-07  0.0068749999154167065  0.999368375777208  1.0000
  V   V2        1.0  1.2904999517966568e-07  0.0020055835589226174  0.9997317569053887  1.0000
  V   V3        1.0  1.364500031198369e-07  0.004433909927639331  0.9999024295185259  1.0000
  V   V4        1.0  1.1895000299560383e-07  0.009374999788541765  0.9995477993144205  1.0000
  V   V5        1.0  0.005000119050649392  0.0068749999154167065  0.9995477993144205  1.0000
  V   V6        1.0  0.005000141852990553  0.0018157174565184354  0.9999024355890223  1.0000
  V   V7        1.0  0.005000119050649392  0.009374999788541765  0.999368375777208  1.0000
  V   V8        1.0  0.005000141479181681  0.004243970739982699  0.9997317550842398  1.0000
  V   V9        1.0  0.007500119140363521  0.003125000105729118  0.9994580876975767  1.0000
  V   V10       1.0  0.007500423420784912  0.008125070161842352  0.9998168880291792  1.0000
  V   V11       1.0  0.0025001189609352623  0.003125000105729118  0.9994580876975767  1.0000
  V   V12       1.0  0.002499851874496584  0.008125071219133527  0.9998168889397537  1.0000
  Sn  Sn1       1.0  0.005000139610137323  0.0055827876287053236  0.0  1.0000
  Sn  Sn2       1.0  0.005000119050649392  0.0006250000343619633  0.9996375112347891  1.0000
  Sn  Sn3       1.0  1.1895000299560383e-07  0.005624999978854177  0.9996375112347891  1.0000
  Sn  Sn4       1.0  0.00999988074001764  0.0006683171216269536  3.763707763622913e-08  1.0000
