data_image0
_chemical_formula_structural       CORe18Os6Re18Os6
_chemical_formula_sum              "C1 O1 Re36 Os12"
_cell_length_a       5.565713531726639
_cell_length_b       10.477885084708257
_cell_length_c       112.71367645263672
_cell_angle_alpha    83.51291868424221
_cell_angle_beta     113.0110429854788
_cell_angle_gamma    74.59778723360611

_space_group_name_H-M_alt    "P 1"
_space_group_IT_number       1

loop_
  _space_group_symop_operation_xyz
  'x, y, z'

loop_
  _atom_site_type_symbol
  _atom_site_label
  _atom_site_symmetry_multiplicity
  _atom_site_fract_x
  _atom_site_fract_y
  _atom_site_fract_z
  _atom_site_occupancy
  C   C1        1.0  0.0023463166984215396  0.006505764733721289  0.00013335797708094324  1.0000
  O   O1        1.0  0.0023463166984215396  0.006505764733721289  0.00023982264664335951  1.0000
  Re  Re1       1.0  0.0016459279522886654  0.009718548898977225  0.9993031579260346  1.0000
  Re  Re2       1.0  0.001645927923785574  0.0030518823159784167  0.9988820942098507  1.0000
  Re  Re3       1.0  0.0016459281343692129  0.0063852153222464835  0.9990926262069318  1.0000
  Re  Re4       1.0  0.001645927890576854  0.0013962351550704352  0.999091233859505  1.0000
  Re  Re5       1.0  0.0016459281520702779  0.004729568351492727  0.999301766119979  1.0000
  Re  Re6       1.0  0.0016459279699897317  0.008062901928223468  0.9988807022299324  1.0000
  Re  Re7       1.0  0.006678986829240808  0.009718548898977225  0.9993031576050498  1.0000
  Re  Re8       1.0  0.006678986073546325  0.0030518823159784167  0.9988820941392365  1.0000
  Re  Re9       1.0  0.006678986647725658  0.0063852153222464835  0.9990926258789286  1.0000
  Re  Re10      1.0  0.008334633297394315  0.00028145088044387507  0.9989162548841084  1.0000
  Re  Re11      1.0  0.008334633609797526  0.003614784267020391  0.9991267866147533  1.0000
  Re  Re12      1.0  0.008334633325897407  0.006948117463442683  0.9993373183358849  1.0000
  Re  Re13      1.0  0.008334634035387733  0.008603764434196439  0.9991281784368745  1.0000
  Re  Re14      1.0  0.008334633148805188  0.0019370980413518563  0.999338710575687  1.0000
  Re  Re15      1.0  0.00833463359209646  0.005270431237774148  0.998917646701706  1.0000
  Re  Re16      1.0  0.0033015751476335635  0.00028145088044387507  0.9989162546903153  1.0000
  Re  Re17      1.0  0.0033015750964410793  0.003614784267020391  0.9991267864139418  1.0000
  Re  Re18      1.0  0.0033015751761366553  0.006948117463442683  0.9993373186709066  1.0000
  Os  Os1       1.0  0.003323614569288708  0.008611110472192917  0.9991272504684435  1.0000
  Os  Os2       1.0  0.003323613915413797  0.0019444442695025579  0.9993377826097508  1.0000
  Os  Os3       1.0  0.0033236138642213126  0.005277777656079074  0.9989167187242278  1.0000
  Os  Os4       1.0  0.006656947007614426  0.0013888888318426215  0.9990921620886013  1.0000
  Os  Os5       1.0  0.00665694751634973  0.004722221933187801  0.9993026940904388  1.0000
  Os  Os6       1.0  0.006656947959641003  0.008055555129610092  0.9988816302164578  1.0000
  Re  Re19      1.0  0.0016834321738175295  0.00969760759455405  0.9999306451122989  1.0000
  Re  Re20      1.0  0.001645927923785574  0.0030518823159784167  0.999513689554593  1.0000
  Re  Re21      1.0  0.0016587001332424272  0.006399991066098168  0.9997305024144679  1.0000
  Re  Re22      1.0  0.001672242335781837  0.0014237033130914314  0.9997288748750156  1.0000
  Re  Re23      1.0  0.0016033945101574017  0.0046997225050500096  0.9999282746355141  1.0000
  Re  Re24      1.0  0.0016459279699897317  0.008062901928223468  0.9995122978390819  1.0000
  Re  Re25      1.0  0.006598474200521699  0.009691566014536862  0.9999308986994431  1.0000
  Re  Re26      1.0  0.006678986073546325  0.0030518823159784167  0.999513689748386  1.0000
  Re  Re27      1.0  0.006735363509682772  0.006401134273295176  0.9997299817101831  1.0000
  Re  Re28      1.0  0.008334633297394315  0.00028145088044387507  0.9995478504932579  1.0000
  Re  Re29      1.0  0.008331407976301622  0.003625559926607893  0.99975818404916  1.0000
  Re  Re30      1.0  0.00839660615813886  0.0069397902296483745  0.999961341589855  1.0000
  Re  Re31      1.0  0.008309293246400378  0.008627094836294797  0.9997576051955923  1.0000
  Re  Re32      1.0  0.008247120749226306  0.0019360563765106703  0.9999579125227288  1.0000
  Re  Re33      1.0  0.00833463359209646  0.005270431237774148  0.9995492423108555  1.0000
  Re  Re34      1.0  0.0033015751476335635  0.00028145088044387507  0.9995478502994648  1.0000
  Re  Re35      1.0  0.003300726022001086  0.0036258672158345005  0.9997583840819388  1.0000
  Re  Re36      1.0  0.0031380587081301517  0.006935758199474495  0.9999610332464824  1.0000
  Os  Os7       1.0  0.003311052449492253  0.00862654947397926  0.9997574779445572  1.0000
  Os  Os8       1.0  0.0032869554366704024  0.00191531074078439  0.9999635472458172  1.0000
  Os  Os9       1.0  0.0033236138642213126  0.005277777656079074  0.9995483143333773  1.0000
  Os  Os10      1.0  0.006703776477508406  0.0013943668898158436  0.9997302595104584  1.0000
  Os  Os11      1.0  0.006612419002144784  0.00477946596089694  0.9999326523430797  1.0000
  Os  Os12      1.0  0.006656947959641003  0.008055555129610092  0.9995132258256073  1.0000
