data_image0
_chemical_formula_structural       COMn4Al24
_chemical_formula_sum              "C1 O1 Mn4 Al24"
_cell_length_a       6.497334957122803
_cell_length_b       8.869704246520996
_cell_length_c       100.33052825927734
_cell_angle_alpha    90.0
_cell_angle_beta     90.0
_cell_angle_gamma    90.0

_space_group_name_H-M_alt    "P 1"
_space_group_IT_number       1

loop_
  _space_group_symop_operation_xyz
  'x, y, z'

loop_
  _atom_site_type_symbol
  _atom_site_label
  _atom_site_symmetry_multiplicity
  _atom_site_fract_x
  _atom_site_fract_y
  _atom_site_fract_z
  _atom_site_occupancy
  C   C1        1.0  0.006206266532395404  0.0029523708433815644  7.882528702470616e-05  1.0000
  O   O1        1.0  0.006206266532395404  0.0029523708433815644  0.0001984296080847887  1.0000
  Mn  Mn1       1.0  0.004534968837193788  0.002952371053382383  0.9999678191268515  1.0000
  Mn  Mn2       1.0  0.005464355049160426  0.007952370624980713  0.9999678874463777  1.0000
  Mn  Mn3       1.0  0.00956859915261371  0.0029523708433815644  0.999604996401569  1.0000
  Mn  Mn4       1.0  0.0004314270956543858  0.007952370624980713  0.999604996401569  1.0000
  Al  Al1       1.0  0.007862609079041316  0.0029523708433815644  0.9993650095109335  1.0000
  Al  Al2       1.0  0.0021219447096206276  0.007952370624980713  0.999844551691024  1.0000
  Al  Al3       1.0  0.005000012980794882  0.00045237100508219456  0.999358115476662  1.0000
  Al  Al4       1.0  0.004999772744352501  0.00545162418127233  0.9998646328790498  1.0000
  Al  Al5       1.0  0.004999772744352501  0.000453117505490799  0.9998646328790498  1.0000
  Al  Al6       1.0  0.005000012980794882  0.005452370944181957  0.999358115476662  1.0000
  Al  Al7       1.0  0.00844195789393419  0.00954762840061549  0.0  1.0000
  Al  Al8       1.0  0.001558816441441772  0.004547261117584438  0.0  1.0000
  Al  Al9       1.0  0.008441956747220862  0.006357111589341028  0.0  1.0000
  Al  Al10      1.0  0.0015588158680851076  0.0013574807791795096  0.0  1.0000
  Al  Al11      1.0  0.0021374170258876128  0.007952370624980713  0.9993650095109335  1.0000
  Al  Al12      1.0  0.007877564514275352  0.0029523708433815644  0.9998445617904322  1.0000
  Al  Al13      1.0  0.0028453842178596802  0.002952371053382383  0.999748006695247  1.0000
  Al  Al14      1.0  0.007137416676140047  0.007952370624980713  0.9994671005670269  1.0000
  Al  Al15      1.0  0.009999985826623255  0.0004525287681968901  0.9997390372325876  1.0000
  Al  Al16      1.0  1.3299999542710321e-08  0.005452370944181957  0.9994739946012984  1.0000
  Al  Al17      1.0  1.3299999542710321e-08  0.00045237100508219456  0.9994739946012984  1.0000
  Al  Al18      1.0  0.009999986973336586  0.005452213023566648  0.9997390372325876  1.0000
  Al  Al19      1.0  0.003597731079064948  0.009448142612987025  0.999604996401569  1.0000
  Al  Al20      1.0  0.00640229545588148  0.004448142411386241  0.999604996401569  1.0000
  Al  Al21      1.0  0.003597731079064948  0.006456599476977675  0.999604996401569  1.0000
  Al  Al22      1.0  0.00640229545588148  0.0014565993803772978  0.999604996401569  1.0000
  Al  Al23      1.0  0.007154877106640816  0.007952370624980713  0.9997479472869634  1.0000
  Al  Al24      1.0  0.002862609572128048  0.0029523708433815644  0.9994671005670269  1.0000
