data_image0
_chemical_formula_structural       COTi4Fe8
_chemical_formula_sum              "C1 O1 Ti4 Fe8"
_cell_length_a       4.729368686676025
_cell_length_b       4.72936848435303
_cell_length_c       100.73158264160156
_cell_angle_alpha    90.0
_cell_angle_beta     90.0
_cell_angle_gamma    120.00000141515531

_space_group_name_H-M_alt    "P 1"
_space_group_IT_number       1

loop_
  _space_group_symop_operation_xyz
  'x, y, z'

loop_
  _atom_site_type_symbol
  _atom_site_label
  _atom_site_symmetry_multiplicity
  _atom_site_fract_x
  _atom_site_fract_y
  _atom_site_fract_z
  _atom_site_occupancy
  C   C1        1.0  0.009601814759737577  0.005796538090128818  6.575697904808647e-05  1.0000
  O   O1        1.0  0.009601814759737577  0.005796538090128818  0.00018488569721178906  1.0000
  Ti  Ti1       1.0  0.003731518386735893  0.006666695463004066  0.9995881228726571  1.0000
  Ti  Ti2       1.0  0.007064883876497338  0.003333500308431876  0.9999579229653816  1.0000
  Ti  Ti3       1.0  0.007064851492149923  0.0033333622842941493  0.9996832864385344  1.0000
  Ti  Ti4       1.0  0.003731518386735893  0.006666695463004066  0.9993019315814518  1.0000
  Fe  Fe1       1.0  0.006917198597234344  0.008259639085516513  0.9998296888976368  1.0000
  Fe  Fe2       1.0  0.003786222063194495  0.001694047326640446  0.9994450272270544  1.0000
  Fe  Fe3       1.0  0.008704166160374881  0.001694047326640446  0.9994450272270544  1.0000
  Fe  Fe4       1.0  0.00213861546217468  0.0034810108201319134  0.9998296888976368  1.0000
  Fe  Fe5       1.0  0.0021387455337443803  0.008259575417051005  0.9998296965899649  1.0000
  Fe  Fe6       1.0  0.008704166336109938  0.006611991972214179  0.9994450272270544  1.0000
  Fe  Fe7       1.0  0.0003981851294650167  2.8850000695869856e-08  0.9996357046555958  1.0000
  Fe  Fe8       1.0  0.00039824286765662584  0.009999971112707649  0.0  1.0000
