data_image0
_chemical_formula_structural       COSn12
_chemical_formula_sum              "C1 O1 Sn12"
_cell_length_a       6.725587368011475
_cell_length_b       8.23712845981962
_cell_length_c       106.21839904785156
_cell_angle_alpha    94.34775313269397
_cell_angle_beta     90.0
_cell_angle_gamma    114.0948431003715

_space_group_name_H-M_alt    "P 1"
_space_group_IT_number       1

loop_
  _space_group_symop_operation_xyz
  'x, y, z'

loop_
  _atom_site_type_symbol
  _atom_site_label
  _atom_site_symmetry_multiplicity
  _atom_site_fract_x
  _atom_site_fract_y
  _atom_site_fract_z
  _atom_site_occupancy
  C   C1        1.0  0.004171018957950906  0.004622780879764825  6.705040532880424e-05  1.0000
  O   O1        1.0  0.004171018957950906  0.004622780879764825  0.0001800254117896815  1.0000
  Sn  Sn1       1.0  0.004883290865144211  0.003969250660534408  0.9992458085277214  1.0000
  Sn  Sn2       1.0  0.0032524276648183883  0.000614082752341134  0.999821406995376  1.0000
  Sn  Sn3       1.0  0.009049957438920333  0.0023025838745544284  0.9995299586616011  1.0000
  Sn  Sn4       1.0  0.0009249575754082903  0.0010525839093541447  0.9993168462460499  1.0000
  Sn  Sn5       1.0  0.008924032831789075  0.008067618211016826  0.9999017357864599  1.0000
  Sn  Sn6       1.0  0.005091624498644688  0.009385917963538742  0.9996009967664522  1.0000
  Sn  Sn7       1.0  0.009075042550232428  0.004430828130795645  0.9999034202180007  1.0000
  Sn  Sn8       1.0  0.006133290954629196  0.006469250839504378  0.9996720342020129  1.0000
  Sn  Sn9       1.0  0.001966624380853073  0.008135917625484356  0.9993878837875572  1.0000
  Sn  Sn10      1.0  0.008008290907459591  0.005219250501449991  0.9994589212231179  1.0000
  Sn  Sn11      1.0  0.006742079071417437  0.0009520865545939221  5.597291096418607e-06  1.0000
  Sn  Sn12      1.0  0.002174957602750924  0.003552583964039413  0.9997430716390349  1.0000
