data_image0
_chemical_formula_structural       HSi4Rh8Si4Rh8Si4Rh8Si4Rh8
_chemical_formula_sum              "H1 Si16 Rh32"
_cell_length_a       7.456906318664551
_cell_length_b       7.955959796905518
_cell_length_c       103.07842254638672
_cell_angle_alpha    90.0
_cell_angle_beta     90.0
_cell_angle_gamma    90.0

_space_group_name_H-M_alt    "P 1"
_space_group_IT_number       1

loop_
  _space_group_symop_operation_xyz
  'x, y, z'

loop_
  _atom_site_type_symbol
  _atom_site_label
  _atom_site_symmetry_multiplicity
  _atom_site_fract_x
  _atom_site_fract_y
  _atom_site_fract_z
  _atom_site_occupancy
  H   H1        1.0  0.000703221073431351  0.001250000060871064  0.00011952567947096726  1.0000
  Si  Si1       1.0  0.003942742516977266  0.003750000065553453  0.9999660170840582  1.0000
  Si  Si2       1.0  0.006057257243226327  0.001250000060871064  0.9996688711239503  1.0000
  Si  Si3       1.0  0.0010572574880184926  0.003750000065553453  0.9996985958392592  1.0000
  Si  Si4       1.0  0.008942742397079062  0.001250000060871064  0.9999362923687494  1.0000
  Rh  Rh1       1.0  0.0030379587001525617  0.001250000060871064  0.9995638119930174  1.0000
  Rh  Rh2       1.0  0.0069620410600510305  0.003750000065553453  0.9995362337253931  1.0000
  Rh  Rh3       1.0  0.0019620411799492346  0.001250000060871064  0.9998312332378164  1.0000
  Rh  Rh4       1.0  0.008037958580254358  0.003750000065553453  0.9998036549701921  1.0000
  Rh  Rh5       1.0  0.0042967789315644074  0.003750000065553453  0.9997325787552009  1.0000
  Rh  Rh6       1.0  0.005703220828639185  0.001250000060871064  0.9999023094528076  1.0000
  Rh  Rh7       1.0  0.000703221073431351  0.003750000065553453  0.0  1.0000
  Rh  Rh8       1.0  0.009296778811666203  0.001250000060871064  0.9996348882080085  1.0000
  Si  Si5       1.0  0.003942742516977266  0.003750000065553453  0.9994311751727057  1.0000
  Si  Si6       1.0  0.006057257243226327  0.001250000060871064  0.9991340286343523  1.0000
  Si  Si7       1.0  0.0010572574880184926  0.003750000065553453  0.999163753638784  1.0000
  Si  Si8       1.0  0.008942742397079062  0.001250000060871064  0.9994014498791512  1.0000
  Rh  Rh9       1.0  0.0030379587001525617  0.001250000060871064  0.9990289697925421  1.0000
  Rh  Rh10      1.0  0.0069620410600510305  0.003750000065553453  0.9990013915249178  1.0000
  Rh  Rh11      1.0  0.0019620411799492346  0.001250000060871064  0.9992963910373411  1.0000
  Rh  Rh12      1.0  0.008037958580254358  0.003750000065553453  0.9992688127697169  1.0000
  Rh  Rh13      1.0  0.0042967789315644074  0.003750000065553453  0.9991977365547258  1.0000
  Rh  Rh14      1.0  0.005703220828639185  0.001250000060871064  0.9993674669632095  1.0000
  Rh  Rh15      1.0  0.000703221073431351  0.003750000065553453  0.9994651580886476  1.0000
  Rh  Rh16      1.0  0.009296778811666203  0.001250000060871064  0.9991000457184105  1.0000
  Si  Si9       1.0  0.003942742516977266  0.008750000074918232  0.9999660170840582  1.0000
  Si  Si10      1.0  0.006057257243226327  0.006250000187295581  0.9996688711239503  1.0000
  Si  Si11      1.0  0.0010572574880184926  0.008750000074918232  0.9996985958392592  1.0000
  Si  Si12      1.0  0.008942742397079062  0.006250000187295581  0.9999362923687494  1.0000
  Rh  Rh17      1.0  0.0030379587001525617  0.006250000187295581  0.9995638119930174  1.0000
  Rh  Rh18      1.0  0.0069620410600510305  0.008750000074918232  0.9995362337253931  1.0000
  Rh  Rh19      1.0  0.0019620411799492346  0.006250000187295581  0.9998312332378164  1.0000
  Rh  Rh20      1.0  0.008037958580254358  0.008750000074918232  0.9998036549701921  1.0000
  Rh  Rh21      1.0  0.0042967789315644074  0.008750000074918232  0.9997325787552009  1.0000
  Rh  Rh22      1.0  0.005703220828639185  0.006250000187295581  0.9999023094528076  1.0000
  Rh  Rh23      1.0  0.000703221073431351  0.008750000074918232  0.0  1.0000
  Rh  Rh24      1.0  0.009296778811666203  0.006250000187295581  0.9996348882080085  1.0000
  Si  Si13      1.0  0.003942742516977266  0.008750000074918232  0.9994311751727057  1.0000
  Si  Si14      1.0  0.006057257243226327  0.006250000187295581  0.9991340286343523  1.0000
  Si  Si15      1.0  0.0010572574880184926  0.008750000074918232  0.999163753638784  1.0000
  Si  Si16      1.0  0.008942742397079062  0.006250000187295581  0.9994014498791512  1.0000
  Rh  Rh25      1.0  0.0030379587001525617  0.006250000187295581  0.9990289697925421  1.0000
  Rh  Rh26      1.0  0.0069620410600510305  0.008750000074918232  0.9990013915249178  1.0000
  Rh  Rh27      1.0  0.0019620411799492346  0.006250000187295581  0.9992963910373411  1.0000
  Rh  Rh28      1.0  0.008037958580254358  0.008750000074918232  0.9992688127697169  1.0000
  Rh  Rh29      1.0  0.0042967789315644074  0.008750000074918232  0.9991977365547258  1.0000
  Rh  Rh30      1.0  0.005703220828639185  0.006250000187295581  0.9993674669632095  1.0000
  Rh  Rh31      1.0  0.000703221073431351  0.008750000074918232  0.9994651580886476  1.0000
  Rh  Rh32      1.0  0.009296778811666203  0.006250000187295581  0.9991000457184105  1.0000
