data_image0
_chemical_formula_structural       COIn10Sb10
_chemical_formula_sum              "C1 O1 In10 Sb10"
_cell_length_a       4.755272388458252
_cell_length_b       14.265817523257446
_cell_length_c       103.95944213867188
_cell_angle_alpha    98.04946701629434
_cell_angle_beta     90.0
_cell_angle_gamma    90.0

_space_group_name_H-M_alt    "P 1"
_space_group_IT_number       1

loop_
  _space_group_symop_operation_xyz
  'x, y, z'

loop_
  _atom_site_type_symbol
  _atom_site_label
  _atom_site_symmetry_multiplicity
  _atom_site_fract_x
  _atom_site_fract_y
  _atom_site_fract_z
  _atom_site_occupancy
  C   C1        1.0  0.007499999341942249  0.0043313344644261825  0.0001868429214504183  1.0000
  O   O1        1.0  0.007499999341942249  0.0043313344644261825  0.0003022727859420745  1.0000
  In  In1       1.0  0.009999997555785498  0.002023925686141491  0.999916186486486  1.0000
  In  In2       1.0  2.0000001908208061e-10  0.007583333393815971  0.9997559670256371  1.0000
  In  In3       1.0  2.0000001908208061e-10  0.0035833333706075175  0.9991026464406388  1.0000
  In  In4       1.0  2.0000001908208061e-10  0.002916666831938992  0.9995381935912018  1.0000
  In  In5       1.0  2.0000001908208061e-10  0.008249999932484497  0.9993204198750741  1.0000
  In  In6       1.0  0.005000000344696917  0.0002500000014505284  0.9996470805872174  1.0000
  In  In7       1.0  0.005000000344696917  0.005583333777810395  0.9994293068840758  1.0000
  In  In8       1.0  0.005000000736397958  0.004984941764165242  0.9998759317399397  1.0000
  In  In9       1.0  0.005000000344696917  0.0009166666884685479  0.9992115331528325  1.0000
  In  In10      1.0  0.004999999952995875  0.008800478092468289  0.9999981668782  1.0000
  Sb  Sb1       1.0  2.0000001908208061e-10  0.009083333237686371  0.9995926370943701  1.0000
  Sb  Sb2       1.0  2.0000001908208061e-10  0.004416666675809391  0.9993748633732622  1.0000
  Sb  Sb3       1.0  2.0000001908208061e-10  0.003750000137140866  0.9998104108104977  1.0000
  Sb  Sb4       1.0  2.0000001908208061e-10  0.009750000303819764  0.99915708966727  1.0000
  Sb  Sb5       1.0  0.00999999990599175  0.00746876855199433  6.082636855962734e-05  1.0000
  Sb  Sb6       1.0  0.005000000344696917  0.0017499999936704217  0.9994837500854559  1.0000
  Sb  Sb7       1.0  0.005000000344696917  0.007083333621680794  0.9992659766661363  1.0000
  Sb  Sb8       1.0  0.005000000344696917  0.006416667083012269  0.9997015238166992  1.0000
  Sb  Sb9       1.0  0.005000000344696917  0.006295336976796204  0.00012096691926172748  1.0000
  Sb  Sb10      1.0  0.004999999561294833  0.0009241303163479406  0.9999326248751543  1.0000
