data_image0
_chemical_formula_structural       COV6Ga2V6Ga2
_chemical_formula_sum              "C1 O1 V12 Ga4"
_cell_length_a       4.802628517150879
_cell_length_b       4.802628517150879
_cell_length_c       103.61840057373047
_cell_angle_alpha    90.0
_cell_angle_beta     90.0
_cell_angle_gamma    90.0

_space_group_name_H-M_alt    "P 1"
_space_group_IT_number       1

loop_
  _space_group_symop_operation_xyz
  'x, y, z'

loop_
  _atom_site_type_symbol
  _atom_site_label
  _atom_site_symmetry_multiplicity
  _atom_site_fract_x
  _atom_site_fract_y
  _atom_site_fract_z
  _atom_site_occupancy
  C   C1        1.0  0.0054166668321445075  0.0012500000232703215  8.990822404288901e-05  1.0000
  O   O1        1.0  0.0054166668321445075  0.0012500000232703215  0.00020571743020325264  1.0000
  V   V1        1.0  0.0037500002637303087  0.0037500002637303087  0.9998841269430608  1.0000
  V   V2        1.0  0.0037500002637303087  0.008749999968972905  0.9998841269430608  1.0000
  V   V3        1.0  0.008749999968972905  0.0012500000232703215  0.0  1.0000
  V   V4        1.0  0.008749999968972905  0.0012500000232703215  0.9997682538861218  1.0000
  V   V5        1.0  0.006250000310270952  0.006250000310270952  0.9996523808291826  1.0000
  V   V6        1.0  0.0012500000232703215  0.006250000310270952  0.9996523808291826  1.0000
  Ga  Ga1       1.0  0.008749999968972905  0.006250000310270952  0.9998841269430608  1.0000
  Ga  Ga2       1.0  0.0037500002637303087  0.0012500000232703215  0.9996523808291826  1.0000
  V   V7        1.0  0.0037500002637303087  0.0037500002637303087  0.9994206350029206  1.0000
  V   V8        1.0  0.0037500002637303087  0.008749999968972905  0.9994206350029206  1.0000
  V   V9        1.0  0.008749999968972905  0.0012500000232703215  0.9995365077722436  1.0000
  V   V10       1.0  0.008749999968972905  0.0012500000232703215  0.9993047619459814  1.0000
  V   V11       1.0  0.006250000310270952  0.006250000310270952  0.9991888891766584  1.0000
  V   V12       1.0  0.0012500000232703215  0.006250000310270952  0.9991888891766584  1.0000
  Ga  Ga3       1.0  0.008749999968972905  0.006250000310270952  0.9994206350029206  1.0000
  Ga  Ga4       1.0  0.0037500002637303087  0.0012500000232703215  0.9991888891766584  1.0000
