data_image0
_chemical_formula_structural       COAg2Ca4Pb2
_chemical_formula_sum              "C1 O1 Ag2 Ca4 Pb2"
_cell_length_a       5.488901138305664
_cell_length_b       5.488901138305664
_cell_length_c       101.04991149902344
_cell_angle_alpha    90.0
_cell_angle_beta     90.0
_cell_angle_gamma    90.0

_space_group_name_H-M_alt    "P 1"
_space_group_IT_number       1

loop_
  _space_group_symop_operation_xyz
  'x, y, z'

loop_
  _atom_site_type_symbol
  _atom_site_label
  _atom_site_symmetry_multiplicity
  _atom_site_fract_x
  _atom_site_fract_y
  _atom_site_fract_z
  _atom_site_occupancy
  C   C1        1.0  0.00749999552061235  0.0024999988462183326  0.0001632690915855821  1.0000
  O   O1        1.0  0.00749999552061235  0.0024999988462183326  0.00028202193892643565  1.0000
  Ag  Ag1       1.0  0.009999981810971361  0.005000002782649903  0.9999837271214228  1.0000
  Ag  Ag2       1.0  0.005000002782649903  3.0000000257509777e-10  0.999614904699681  1.0000
  Ca  Ca1       1.0  0.005000002782649903  0.005000000407217059  0.9994228590148567  1.0000
  Ca  Ca2       1.0  0.0050000034613450015  0.0050000017646072556  0.9998155799413264  1.0000
  Ca  Ca3       1.0  0.009999997420958626  0.01000000013573902  0.99981558053118  1.0000
  Ca  Ca4       1.0  2.6000000762553543e-09  3.0000000257509777e-10  0.9994228590148567  1.0000
  Pb  Pb1       1.0  0.005000009569600888  0.00999999538487333  0.0  1.0000
  Pb  Pb2       1.0  2.6000000762553543e-09  0.005000000407217059  0.999614904699681  1.0000
