data_image0
_chemical_formula_structural       HAu2In4Na2
_chemical_formula_sum              "H1 Au2 In4 Na2"
_cell_length_a       4.656162738800049
_cell_length_b       5.790477984183211
_cell_length_c       102.59518432617188
_cell_angle_alpha    90.0
_cell_angle_beta     90.0
_cell_angle_gamma    113.70660942861873

_space_group_name_H-M_alt    "P 1"
_space_group_IT_number       1

loop_
  _space_group_symop_operation_xyz
  'x, y, z'

loop_
  _atom_site_type_symbol
  _atom_site_label
  _atom_site_symmetry_multiplicity
  _atom_site_fract_x
  _atom_site_fract_y
  _atom_site_fract_z
  _atom_site_occupancy
  H   H1        1.0  0.00855058923982196  0.0070808722607310845  0.00019821798519352058  1.0000
  Au  Au1       1.0  0.002842915943962279  0.00566552762520082  0.9994361612331079  1.0000
  Au  Au2       1.0  0.0071232865149226535  0.004227058087421688  0.9998255087979748  1.0000
  In  In1       1.0  0.0015544405455736384  0.003092448633943942  0.0  1.0000
  In  In2       1.0  0.00855058923982196  0.0070808722607310845  7.812932241103753e-05  1.0000
  In  In3       1.0  0.008597247531438621  0.007174190444119089  0.9995928460188568  1.0000
  In  In4       1.0  0.0014027526918362085  0.0027852011271992825  0.9996766101617857  1.0000
  Na  Na1       1.0  0.00570256835907346  0.001384832099388765  0.9994361612331079  1.0000
  Na  Na2       1.0  0.004317552560547445  0.008615168051678612  0.9998395142230934  1.0000
