data_image0
_chemical_formula_structural       HAg6Pt30Si6
_chemical_formula_sum              "H1 Ag6 Pt30 Si6"
_cell_length_a       8.197586286798431
_cell_length_b       8.921448466616754
_cell_length_c       101.21781921386719
_cell_angle_alpha    86.72340891557974
_cell_angle_beta     89.21040100396829
_cell_angle_gamma    64.19429327437902

_space_group_name_H-M_alt    "P 1"
_space_group_IT_number       1

loop_
  _space_group_symop_operation_xyz
  'x, y, z'

loop_
  _atom_site_type_symbol
  _atom_site_label
  _atom_site_symmetry_multiplicity
  _atom_site_fract_x
  _atom_site_fract_y
  _atom_site_fract_z
  _atom_site_occupancy
  H   H1        1.0  0.003324238832412639  0.0032836604992346253  8.82423338854102e-05  1.0000
  Ag  Ag1       1.0  0.0058468385679971814  0.005865786307483521  0.9992057380112992  1.0000
  Ag  Ag2       1.0  0.0052912826320074095  0.001976897313291948  0.9993770837057668  1.0000
  Ag  Ag3       1.0  0.006402394269245023  0.009754674837104427  0.9990343926138715  1.0000
  Ag  Ag4       1.0  0.004180171935888575  0.004199119529319895  0.9997197750158063  1.0000
  Ag  Ag5       1.0  0.0036945393519752247  0.00024532501887866525  0.9999077615756933  1.0000
  Ag  Ag6       1.0  0.004735726743178423  0.008088008988082134  0.9995484293202579  1.0000
  Pt  Pt1       1.0  0.009201931996897453  0.0036019239257580097  0.9990851831517765  1.0000
  Pt  Pt2       1.0  0.008646376672418429  0.009713035368262863  0.9992565287668079  1.0000
  Pt  Pt3       1.0  0.008090821190909276  0.005824146374071289  0.9994278744607683  1.0000
  Pt  Pt4       1.0  0.003047300009095316  0.0020185372467041796  0.9991549475507353  1.0000
  Pt  Pt5       1.0  0.002491744340005016  0.0081296484569237  0.9993262931673215  1.0000
  Pt  Pt6       1.0  0.0019361888584958629  0.004240759462732126  0.999497638861282  1.0000
  Pt  Pt7       1.0  0.00892415427972327  0.006657479763153103  0.9991708558115496  1.0000
  Pt  Pt8       1.0  0.008368598798214118  0.0027685907689615295  0.9993422015055101  1.0000
  Pt  Pt9       1.0  0.007813043803343122  0.008879701514610382  0.9995135471236842  1.0000
  Pt  Pt10      1.0  0.002769522401790475  0.005074092851813939  0.999240620211556  1.0000
  Pt  Pt11      1.0  0.0022139666381063407  0.001185203973765033  0.9994119659052463  1.0000
  Pt  Pt12      1.0  0.0033250776635609406  0.008962982310576179  0.9990692748099379  1.0000
  Pt  Pt13      1.0  0.0050135050247025695  0.005032452918401708  0.9994627566610251  1.0000
  Pt  Pt14      1.0  0.006124616175302021  0.002810230702373761  0.9991200653504785  1.0000
  Pt  Pt15      1.0  0.00556906096069234  0.008921341912593281  0.9992914109665575  1.0000
  Pt  Pt16      1.0  0.0075352657643347936  0.0019352572637370497  0.9995992201552526  1.0000
  Pt  Pt17      1.0  0.006959040944280679  0.008116015166143553  0.999768160717476  1.0000
  Pt  Pt18      1.0  0.00641498455034777  0.004026548715816667  0.999934983932935  1.0000
  Pt  Pt19      1.0  0.0013806333083183698  0.00035187061371888626  0.9996689845545876  1.0000
  Pt  Pt20      1.0  0.0008112398649689265  0.006443755421725507  0.9998430691512239  1.0000
  Pt  Pt21      1.0  0.000264272654108652  0.0026488207345633794  0.9999863608083336  1.0000
  Pt  Pt22      1.0  0.007257488102095281  0.004990812984989476  0.9996848928155495  1.0000
  Pt  Pt23      1.0  0.006685699735474212  0.0011479016205235754  0.9998585253638983  1.0000
  Pt  Pt24      1.0  0.006180339315627429  0.006989793664915183  9.231220588145381e-06  1.0000
  Pt  Pt25      1.0  0.0011592892510494403  0.0034265122626289187  0.9997451172997548  1.0000
  Pt  Pt26      1.0  0.000474015746169702  0.00960402757792567  0.9999139591778905  1.0000
  Pt  Pt27      1.0  0.001658411251191022  0.007296315067841886  0.9995833115221027  1.0000
  Pt  Pt28      1.0  0.0032952512680157696  0.0034064112190292663  0.9999662261424025  1.0000
  Pt  Pt29      1.0  0.004457949543193415  0.0011435639242101346  0.9996341023549855  1.0000
  Pt  Pt30      1.0  0.003794142752211594  0.007254367124077741  0.9998169848001125  1.0000
  Si  Si1       1.0  0.0014023941531805155  0.004754674967184214  0.9990343924804808  1.0000
  Si  Si2       1.0  0.0008468383620290455  0.0008657861472066413  0.9992057381739091  1.0000
  Si  Si3       1.0  0.0002912830025810628  0.006976897183212161  0.9993770837910274  1.0000
  Si  Si4       1.0  0.009735727156693418  0.0030880084213059213  0.9995484295320705  1.0000
  Si  Si5       1.0  0.009180171832214392  0.009199119863810775  0.9997197748526643  1.0000
  Si  Si6       1.0  0.008656764159395711  0.005329250857277826  0.9998878124559776  1.0000
