data_image0
_chemical_formula_structural       HIr4Re12
_chemical_formula_sum              "H1 Ir4 Re12"
_cell_length_a       4.793185844064084
_cell_length_b       5.519510269165039
_cell_length_c       106.1320571899414
_cell_angle_alpha    90.0
_cell_angle_beta     92.31208446074794
_cell_angle_gamma    90.0

_space_group_name_H-M_alt    "P 1"
_space_group_IT_number       1

loop_
  _space_group_symop_operation_xyz
  'x, y, z'

loop_
  _atom_site_type_symbol
  _atom_site_label
  _atom_site_symmetry_multiplicity
  _atom_site_fract_x
  _atom_site_fract_y
  _atom_site_fract_z
  _atom_site_occupancy
  H   H1        1.0  0.004612608833325567  0.0012415184284432857  0.00012227628977427797  1.0000
  Ir  Ir1       1.0  0.00716547742595075  0.006241502209843898  0.9993727648031763  1.0000
  Ir  Ir2       1.0  0.004040477348166879  0.0012415022300918373  0.9995855426789896  1.0000
  Ir  Ir3       1.0  0.007772610875245523  0.0012415194408402512  7.917491356404385e-06  1.0000
  Ir  Ir4       1.0  0.0009729025744071798  0.006241500859981277  0.9998011672344509  1.0000
  Re  Re1       1.0  0.009040477083701717  0.00874150245281917  0.9995855426728917  1.0000
  Re  Re2       1.0  0.0058752464099694375  0.0037705834071690186  0.999807997612417  1.0000
  Re  Re3       1.0  0.0021654774959562343  0.0037415023043342816  0.9993727648089199  1.0000
  Re  Re4       1.0  0.0028137520014101156  0.008758497898145111  5.1265676281974595e-06  1.0000
  Re  Re5       1.0  0.009040477083701717  0.0037415023043342816  0.9995855426728917  1.0000
  Re  Re6       1.0  0.005875219574533924  0.008712398739785535  0.999807998125132  1.0000
  Re  Re7       1.0  0.0021654774959562343  0.00874150245281917  0.9993727648089199  1.0000
  Re  Re8       1.0  0.0028137650302085173  0.0037245379058486157  5.127152974563563e-06  1.0000
  Re  Re9       1.0  0.004040477348166879  0.006241502209843898  0.9995855426789896  1.0000
  Re  Re10      1.0  0.000959522387367959  0.0012415058578476303  0.9998048640728019  1.0000
  Re  Re11      1.0  0.00716547742595075  0.0012415022300918373  0.9993727648031763  1.0000
  Re  Re12      1.0  0.0077104001130143636  0.006241494785599484  5.960946846757714e-06  1.0000
