data_image0
_chemical_formula_structural       COGe4Ir4Ge4Ir4Ge4Ir4Ge4Ir4
_chemical_formula_sum              "C1 O1 Ge16 Ir16"
_cell_length_a       7.1572747230529785
_cell_length_b       6.378453731536865
_cell_length_c       103.76953125
_cell_angle_alpha    90.0
_cell_angle_beta     90.0
_cell_angle_gamma    90.0

_space_group_name_H-M_alt    "P 1"
_space_group_IT_number       1

loop_
  _space_group_symop_operation_xyz
  'x, y, z'

loop_
  _atom_site_type_symbol
  _atom_site_label
  _atom_site_symmetry_multiplicity
  _atom_site_fract_x
  _atom_site_fract_y
  _atom_site_fract_z
  _atom_site_occupancy
  C   C1        1.0  0.0012500000624588062  0.009238424850075732  0.0001927346176242236  1.0000
  O   O1        1.0  0.0012500000624588062  0.009238424850075732  0.000308375732835439  1.0000
  Ge  Ge1       1.0  0.0012500000624588062  0.004238424955203446  0.9994576196941575  1.0000
  Ge  Ge2       1.0  0.003750000187376419  0.005761575126562553  0.9992479312493935  1.0000
  Ge  Ge3       1.0  0.0012500000624588062  0.0007615752316902659  0.9991864293976376  1.0000
  Ge  Ge4       1.0  0.003750000187376419  0.009238424850075732  0.9989767409528736  1.0000
  Ir  Ir1       1.0  0.0012500000624588062  0.007912580998800366  0.9993543665444539  1.0000
  Ir  Ir2       1.0  0.003750000187376419  0.0020874190829656323  0.9993511841118997  1.0000
  Ir  Ir3       1.0  0.0012500000624588062  0.007087418977837919  0.9990831765351312  1.0000
  Ir  Ir4       1.0  0.003750000187376419  0.0029125808119066544  0.9990799941025771  1.0000
  Ge  Ge5       1.0  0.0012500000624588062  0.004238424955203446  0.0  1.0000
  Ge  Ge6       1.0  0.003750000187376419  0.005761575126562553  0.999790311555236  1.0000
  Ge  Ge7       1.0  0.0012500000624588062  0.0007615752316902659  0.9997288099906774  1.0000
  Ge  Ge8       1.0  0.003750000187376419  0.009238424850075732  0.9995191215459134  1.0000
  Ir  Ir5       1.0  0.0012500000624588062  0.007912580998800366  0.9998967468502964  1.0000
  Ir  Ir6       1.0  0.003750000187376419  0.0020874190829656323  0.9998935647049395  1.0000
  Ir  Ir7       1.0  0.0012500000624588062  0.007087418977837919  0.9996255568409738  1.0000
  Ir  Ir8       1.0  0.003750000187376419  0.0029125808119066544  0.9996223741212225  1.0000
  Ge  Ge9       1.0  0.006250000312294031  0.004238424955203446  0.9994576196941575  1.0000
  Ge  Ge10      1.0  0.00874999991672159  0.005761575126562553  0.9992479312493935  1.0000
  Ge  Ge11      1.0  0.006250000312294031  0.0007615752316902659  0.9991864293976376  1.0000
  Ge  Ge12      1.0  0.00874999991672159  0.009238424850075732  0.9989767409528736  1.0000
  Ir  Ir9       1.0  0.006250000312294031  0.007912580998800366  0.9993543665444539  1.0000
  Ir  Ir10      1.0  0.00874999991672159  0.0020874190829656323  0.9993511841118997  1.0000
  Ir  Ir11      1.0  0.006250000312294031  0.007087418977837919  0.9990831765351312  1.0000
  Ir  Ir12      1.0  0.00874999991672159  0.0029125808119066544  0.9990799941025771  1.0000
  Ge  Ge13      1.0  0.006250000312294031  0.004238424955203446  0.0  1.0000
  Ge  Ge14      1.0  0.00874999991672159  0.005761575126562553  0.999790311555236  1.0000
  Ge  Ge15      1.0  0.006250000312294031  0.0007615752316902659  0.9997288099906774  1.0000
  Ge  Ge16      1.0  0.00874999991672159  0.009238424850075732  0.9995191215459134  1.0000
  Ir  Ir13      1.0  0.006250000312294031  0.007912580998800366  0.9998967468502964  1.0000
  Ir  Ir14      1.0  0.00874999991672159  0.0020874190829656323  0.9998935647049395  1.0000
  Ir  Ir15      1.0  0.006250000312294031  0.007087418977837919  0.9996255568409738  1.0000
  Ir  Ir16      1.0  0.00874999991672159  0.0029125808119066544  0.9996223741212225  1.0000
