data_image0
_chemical_formula_structural       COZn3Cu3Zn3Cu3Zn3Cu3Zn3Cu3Zn3Cu3Zn3Cu3Zn3Cu3Zn3Cu3
_chemical_formula_sum              "C1 O1 Zn24 Cu24"
_cell_length_a       8.499601364135742
_cell_length_b       8.499601067908033
_cell_length_c       101.22953033447266
_cell_angle_alpha    90.0
_cell_angle_beta     90.0
_cell_angle_gamma    120.00000115289338

_space_group_name_H-M_alt    "P 1"
_space_group_IT_number       1

loop_
  _space_group_symop_operation_xyz
  'x, y, z'

loop_
  _atom_site_type_symbol
  _atom_site_label
  _atom_site_symmetry_multiplicity
  _atom_site_fract_x
  _atom_site_fract_y
  _atom_site_fract_z
  _atom_site_occupancy
  C   C1        1.0  0.0008333333422767568  0.0008333333577945301  0.00011187566403285651  1.0000
  O   O1        1.0  0.0008333333422767568  0.0008333333577945301  0.00023041779965673217  1.0000
  Zn  Zn1       1.0  0.0008333333422767568  0.0008333333577945301  0.9996572195930137  1.0000
  Zn  Zn2       1.0  0.0024999999903663685  0.004166666599187504  0.9998286095021034  1.0000
  Zn  Zn3       1.0  0.0041666665665380034  0.0025000000101218747  0.0  1.0000
  Cu  Cu1       1.0  0.0008333333422767568  0.0008333333577945301  0.9999143050454551  1.0000
  Cu  Cu2       1.0  0.0024999999903663685  0.004166666599187504  0.9995715246384688  1.0000
  Cu  Cu3       1.0  0.0041666665665380034  0.0025000000101218747  0.9997429145475585  1.0000
  Zn  Zn4       1.0  0.0008333333422767568  0.0008333333577945301  0.999143049571341  1.0000
  Zn  Zn5       1.0  0.0024999999903663685  0.004166666599187504  0.9993144394804307  1.0000
  Zn  Zn6       1.0  0.0041666665665380034  0.0025000000101218747  0.999485829683924  1.0000
  Cu  Cu4       1.0  0.0008333333422767568  0.0008333333577945301  0.9994001344349757  1.0000
  Cu  Cu5       1.0  0.0024999999903663685  0.004166666599187504  0.9990573543223927  1.0000
  Cu  Cu6       1.0  0.0041666665665380034  0.0025000000101218747  0.999228744525886  1.0000
  Zn  Zn7       1.0  0.0008333334311456643  0.005833333441299995  0.9996572195930137  1.0000
  Zn  Zn8       1.0  0.002499999986309432  0.009166666113337529  0.9998286095021034  1.0000
  Zn  Zn9       1.0  0.004166666497252622  0.007499999777318762  0.0  1.0000
  Cu  Cu7       1.0  0.0008333334311456643  0.005833333441299995  0.9999143050454551  1.0000
  Cu  Cu8       1.0  0.002499999986309432  0.009166666113337529  0.9995715246384688  1.0000
  Cu  Cu9       1.0  0.004166666497252622  0.007499999777318762  0.9997429145475585  1.0000
  Zn  Zn10      1.0  0.0008333334311456643  0.005833333441299995  0.999143049571341  1.0000
  Zn  Zn11      1.0  0.002499999986309432  0.009166666113337529  0.9993144394804307  1.0000
  Zn  Zn12      1.0  0.004166666497252622  0.007499999777318762  0.999485829683924  1.0000
  Cu  Cu10      1.0  0.0008333334311456643  0.005833333441299995  0.9994001344349757  1.0000
  Cu  Cu11      1.0  0.002499999986309432  0.009166666113337529  0.9990573543223927  1.0000
  Cu  Cu12      1.0  0.004166666497252622  0.007499999777318762  0.999228744525886  1.0000
  Zn  Zn13      1.0  0.005833333275437532  0.0008333333577945301  0.9996572195930137  1.0000
  Zn  Zn14      1.0  0.007499999896134019  0.004166666599187504  0.9998286095021034  1.0000
  Zn  Zn15      1.0  0.009166666636664404  0.0025000000101218747  0.0  1.0000
  Cu  Cu13      1.0  0.005833333275437532  0.0008333333577945301  0.9999143050454551  1.0000
  Cu  Cu14      1.0  0.007499999896134019  0.004166666599187504  0.9995715246384688  1.0000
  Cu  Cu15      1.0  0.009166666636664404  0.0025000000101218747  0.9997429145475585  1.0000
  Zn  Zn16      1.0  0.005833333275437532  0.0008333333577945301  0.999143049571341  1.0000
  Zn  Zn17      1.0  0.007499999896134019  0.004166666599187504  0.9993144394804307  1.0000
  Zn  Zn18      1.0  0.009166666636664404  0.0025000000101218747  0.999485829683924  1.0000
  Cu  Cu16      1.0  0.005833333275437532  0.0008333333577945301  0.9994001344349757  1.0000
  Cu  Cu17      1.0  0.007499999896134019  0.004166666599187504  0.9990573543223927  1.0000
  Cu  Cu18      1.0  0.009166666636664404  0.0025000000101218747  0.999228744525886  1.0000
  Zn  Zn19      1.0  0.005833333282127064  0.005833333441299995  0.9996572195930137  1.0000
  Zn  Zn20      1.0  0.00749999961814583  0.009166666113337529  0.9998286095021034  1.0000
  Zn  Zn21      1.0  0.009166666046909645  0.007499999777318762  0.0  1.0000
  Cu  Cu19      1.0  0.005833333282127064  0.005833333441299995  0.9999143050454551  1.0000
  Cu  Cu20      1.0  0.00749999961814583  0.009166666113337529  0.9995715246384688  1.0000
  Cu  Cu21      1.0  0.009166666046909645  0.007499999777318762  0.9997429145475585  1.0000
  Zn  Zn22      1.0  0.005833333282127064  0.005833333441299995  0.999143049571341  1.0000
  Zn  Zn23      1.0  0.00749999961814583  0.009166666113337529  0.9993144394804307  1.0000
  Zn  Zn24      1.0  0.009166666046909645  0.007499999777318762  0.999485829683924  1.0000
  Cu  Cu22      1.0  0.005833333282127064  0.005833333441299995  0.9994001344349757  1.0000
  Cu  Cu23      1.0  0.00749999961814583  0.009166666113337529  0.9990573543223927  1.0000
  Cu  Cu24      1.0  0.009166666046909645  0.007499999777318762  0.999228744525886  1.0000
