data_image0
_chemical_formula_structural       HAl6Os12V6
_chemical_formula_sum              "H1 Al6 Os12 V6"
_cell_length_a       6.0504631996154785
_cell_length_b       7.410274073304699
_cell_length_c       102.5827407836914
_cell_angle_alpha    94.34775288060878
_cell_angle_beta     90.0
_cell_angle_gamma    114.09484151465139

_space_group_name_H-M_alt    "P 1"
_space_group_IT_number       1

loop_
  _space_group_symop_operation_xyz
  'x, y, z'

loop_
  _atom_site_type_symbol
  _atom_site_label
  _atom_site_symmetry_multiplicity
  _atom_site_fract_x
  _atom_site_fract_y
  _atom_site_fract_z
  _atom_site_occupancy
  H   H1        1.0  0.007215701867604416  0.00404404290484749  9.242420837784373e-05  1.0000
  Al  Al1       1.0  0.006966460382436298  0.0035461559353280416  0.9997599959616836  1.0000
  Al  Al2       1.0  0.002821998246955847  0.005258868100669704  0.9994980782236862  1.0000
  Al  Al3       1.0  0.0011354043937266234  0.0018839425715817312  2.723163599597581e-05  1.0000
  Al  Al4       1.0  0.009905331381361196  0.009425534472610709  0.9996304217310376  1.0000
  Al  Al5       1.0  0.0057386648712675365  0.0010922014524233912  0.9993657347148217  1.0000
  Al  Al6       1.0  0.00407980520090932  0.007773666394080796  0.9999128263205043  1.0000
  Os  Os1       1.0  0.0017803314498937033  0.008175534782072655  0.9994319064983361  1.0000
  Os  Os2       1.0  9.466835771980989e-05  0.0046901726459901765  0.999951825237193  1.0000
  Os  Os3       1.0  0.005946998114544119  0.006508867791207759  0.9996965931658677  1.0000
  Os  Os4       1.0  0.009696998753787937  0.004008868133826341  0.9992995632799915  1.0000
  Os  Os5       1.0  0.007967757153113703  0.0005744650894453778  0.9998316317259351  1.0000
  Os  Os6       1.0  0.0038636649285736175  0.0023422014192667545  0.9995642499490361  1.0000
  Os  Os7       1.0  0.008863665396508144  0.0023422014192667545  0.9995642499490361  1.0000
  Os  Os8       1.0  0.00469699828585341  0.004008868133826341  0.9992995632799915  1.0000
  Os  Os9       1.0  0.002995223207255958  0.0005749157779420619  0.9998316266405136  1.0000
  Os  Os10      1.0  0.004983849208937435  0.00469093745908471  0.999951822453044  1.0000
  Os  Os11      1.0  0.0009469981083870862  0.006508867791207759  0.9996965931658677  1.0000
  Os  Os12      1.0  0.006780331609976567  0.008175534782072655  0.9994319064983361  1.0000
  V   V1        1.0  0.0019812883202704667  0.0035766412526496132  0.9997630134884534  1.0000
  V   V2        1.0  0.007821998195390695  0.005258868100669704  0.9994980782236862  1.0000
  V   V3        1.0  0.006248530142609473  0.002110905001964288  1.1559898224687431e-05  1.0000
  V   V4        1.0  0.004905331375204163  0.009425534472610709  0.9996304217310376  1.0000
  V   V5        1.0  0.0007386649805548769  0.0010922014524233912  0.9993657347148217  1.0000
  V   V6        1.0  0.008993849086722216  0.007602046535508089  0.9998911445276492  1.0000
