data_image0
_chemical_formula_structural       HAl6Pt4Al6Pt4
_chemical_formula_sum              "H1 Al12 Pt8"
_cell_length_a       7.378306865692139
_cell_length_b       6.770963482429374
_cell_length_c       35.921058654785156
_cell_angle_alpha    71.66521559563391
_cell_angle_beta     90.0
_cell_angle_gamma    56.985647002360814

_space_group_name_H-M_alt    "P 1"
_space_group_IT_number       1

loop_
  _space_group_symop_operation_xyz
  'x, y, z'

loop_
  _atom_site_type_symbol
  _atom_site_label
  _atom_site_symmetry_multiplicity
  _atom_site_fract_x
  _atom_site_fract_y
  _atom_site_fract_z
  _atom_site_occupancy
  H   H1        1.0  0.007719988160093244  0.00786880657030496  0.9995889275476557  1.0000
  Al  Al1       1.0  0.000416075133888557  0.0008165472843365704  0.998802050321737  1.0000
  Al  Al2       1.0  0.005459105884475298  0.0008702673828289922  0.9994138848313665  1.0000
  Al  Al3       1.0  0.00874628797665736  0.007336508494730449  0.9990020142927232  1.0000
  Al  Al4       1.0  0.0036274434277870733  0.0074665956488555426  0.9995572693207431  1.0000
  Al  Al5       1.0  0.0071284716020355065  0.004223022147504859  0.999207916289491  1.0000
  Al  Al6       1.0  0.002056182246129338  0.004519848565401257  0.9996809243581911  1.0000
  Pt  Pt1       1.0  0.0013472132980076063  0.0024540401734103917  0.999303343448217  1.0000
  Pt  Pt2       1.0  0.006248225360203084  0.002485580212164635  0.9987030848475149  1.0000
  Pt  Pt3       1.0  0.004583924941117303  0.009147514774123768  0.9989010151904335  1.0000
  Pt  Pt4       1.0  0.009538728772226845  0.009183453044800881  0.9994658305749641  1.0000
  Al  Al7       1.0  0.000416075133888557  0.0008165472843365704  0.9976161532113221  1.0000
  Al  Al8       1.0  0.005416074962223332  0.0008165472843365704  0.9982091015591141  1.0000
  Al  Al9       1.0  0.008848647226534397  0.007284737650864717  0.9978255711726822  1.0000
  Al  Al10      1.0  0.0038486466408530436  0.007284737650864717  0.9984185195204742  1.0000
  Al  Al11      1.0  0.006983503660467343  0.004348357335423686  0.9979996834070592  1.0000
  Al  Al12      1.0  0.0019835035796837088  0.004348357335423686  0.9985926321696821  1.0000
  Pt  Pt5       1.0  0.0012482252794194498  0.002485580212164635  0.9981101364997229  1.0000
  Pt  Pt6       1.0  0.006248225360203084  0.002485580212164635  0.9975171881519309  1.0000
  Pt  Pt7       1.0  0.004583924941117303  0.009147514774123768  0.9977151180800187  1.0000
  Pt  Pt8       1.0  0.009583925021900938  0.009147514774123768  0.9983080668426414  1.0000
