data_image0
_chemical_formula_structural       HGa4Pt12
_chemical_formula_sum              "H1 Ga4 Pt12"
_cell_length_a       5.616091251373291
_cell_length_b       5.6160915153474
_cell_length_c       101.58837890625
_cell_angle_alpha    90.0
_cell_angle_beta     90.0
_cell_angle_gamma    90.65113769262379

_space_group_name_H-M_alt    "P 1"
_space_group_IT_number       1

loop_
  _space_group_symop_operation_xyz
  'x, y, z'

loop_
  _atom_site_type_symbol
  _atom_site_label
  _atom_site_symmetry_multiplicity
  _atom_site_fract_x
  _atom_site_fract_y
  _atom_site_fract_z
  _atom_site_occupancy
  H   H1        1.0  0.0008679477039301715  0.004201283223339623  0.00012900131854923986  1.0000
  Ga  Ga1       1.0  0.005034615238369683  3.461654993563295e-05  0.9994278188425658  1.0000
  Ga  Ga2       1.0  0.009965385310971343  0.005103848356551822  0.999823014387222  1.0000
  Ga  Ga3       1.0  3.4614998160505514e-05  0.005034616370930142  0.9994278188425658  1.0000
  Ga  Ga4       1.0  0.005103844797472598  0.009965383270851573  0.999823014387222  1.0000
  Pt  Pt1       1.0  0.002534613723202338  0.002534616596474988  2.3167502316116565e-05  1.0000
  Pt  Pt2       1.0  0.0075346148921602105  0.007534616145385296  0.9996513635896901  1.0000
  Pt  Pt3       1.0  0.0003869676114654709  0.0003869707340092207  0.9998131544399894  1.0000
  Pt  Pt4       1.0  0.005410299067461831  0.0054103004511024295  0.9994278188425658  1.0000
  Pt  Pt5       1.0  0.009658931383952313  0.00965893217135176  0.9994278188425658  1.0000
  Pt  Pt6       1.0  0.004682261781098764  0.0046822622516385064  0.9998131544399894  1.0000
  Pt  Pt7       1.0  0.00753461622634766  0.00753461680875249  0.9999924464766039  1.0000
  Pt  Pt8       1.0  0.0025346150479664486  0.002534616430633189  0.9995929552102184  1.0000
  Pt  Pt9       1.0  0.002534616106043842  0.007534616145385296  0.0  1.0000
  Pt  Pt10      1.0  0.007534615326562692  0.002534616430633189  0.9996221592532725  1.0000
  Pt  Pt11      1.0  0.0025346151110572585  0.007534616145385296  0.9996221592532725  1.0000
  Pt  Pt12      1.0  0.007534613336589525  0.002534616430633189  0.0  1.0000
