data_image0
_chemical_formula_structural       HCu2Sn2Cu2Sn2Cu2Sn2Cu2Sn2Cu2Sn2Cu2Sn2Cu2Sn2Cu2Sn2
_chemical_formula_sum              "H1 Cu16 Sn16"
_cell_length_a       8.45691967010498
_cell_length_b       8.456920172484265
_cell_length_c       100.9689712524414
_cell_angle_alpha    90.0
_cell_angle_beta     90.0
_cell_angle_gamma    119.99999803491431

_space_group_name_H-M_alt    "P 1"
_space_group_IT_number       1

loop_
  _space_group_symop_operation_xyz
  'x, y, z'

loop_
  _atom_site_type_symbol
  _atom_site_label
  _atom_site_symmetry_multiplicity
  _atom_site_fract_x
  _atom_site_fract_y
  _atom_site_fract_z
  _atom_site_occupancy
  H   H1        1.0  1.066957799063685e-08  0.004999992512703013  0.00012202281889996415  1.0000
  Cu  Cu1       1.0  6.849999959154017e-09  7.549999621383768e-09  0.9994991500008878  1.0000
  Cu  Cu2       1.0  6.849999959154017e-09  7.549999621383768e-09  0.9992435519714822  1.0000
  Sn  Sn1       1.0  0.0016666735228962712  0.0033333408036753903  0.9991157528091978  1.0000
  Sn  Sn2       1.0  0.0033333403152032387  0.0016666742166968937  0.9993713511337666  1.0000
  Cu  Cu3       1.0  1.0363124180492853e-08  0.00999999214647653  0.0  1.0000
  Cu  Cu4       1.0  0.00999999381028861  1.8349998964137772e-08  0.999751518649968  1.0000
  Sn  Sn3       1.0  0.0016666735228962712  0.0033333408036753903  0.9996269491631723  1.0000
  Sn  Sn4       1.0  0.0033332851174665556  0.0016667215209509544  0.9998925133772675  1.0000
  Cu  Cu5       1.0  6.591919611591084e-09  0.005000007263491914  0.9994991500008878  1.0000
  Cu  Cu6       1.0  6.591919611591084e-09  0.005000007263491914  0.9992435519714822  1.0000
  Sn  Sn5       1.0  0.0016666733060600814  0.008333340691772854  0.9991157528091978  1.0000
  Sn  Sn6       1.0  0.0033333400059332753  0.006666673977632384  0.9993713511337666  1.0000
  Cu  Cu7       1.0  1.066957799063685e-08  0.004999992512703013  0.0  1.0000
  Cu  Cu8       1.0  0.00999999304399536  0.005000017945097669  0.999751518649968  1.0000
  Sn  Sn7       1.0  0.0016666733060600814  0.008333340691772854  0.9996269491631723  1.0000
  Sn  Sn8       1.0  0.0033332849080534963  0.006666721281886445  0.9998925133772675  1.0000
  Cu  Cu9       1.0  0.005000007105195171  7.549999621383768e-09  0.9994991500008878  1.0000
  Cu  Cu10      1.0  0.005000007105195171  7.549999621383768e-09  0.9992435519714822  1.0000
  Sn  Sn9       1.0  0.006666673732033056  0.0033333408036753903  0.9991157528091978  1.0000
  Sn  Sn10      1.0  0.008333340561884377  0.0016666742166968937  0.9993713511337666  1.0000
  Cu  Cu11      1.0  0.0050000104864148754  0.00999999214647653  0.0  1.0000
  Cu  Cu12      1.0  0.00499999356360747  1.8349998964137772e-08  0.999751518649968  1.0000
  Sn  Sn11      1.0  0.006666673732033056  0.0033333408036753903  0.9996269491631723  1.0000
  Sn  Sn12      1.0  0.008333285804649726  0.0016667215209509544  0.9998925133772675  1.0000
  Cu  Cu13      1.0  0.005000006838600749  0.005000007263491914  0.9994991500008878  1.0000
  Cu  Cu14      1.0  0.005000006838600749  0.005000007263491914  0.9992435519714822  1.0000
  Sn  Sn13      1.0  0.006666673552741219  0.008333340691772854  0.9991157528091978  1.0000
  Sn  Sn14      1.0  0.008333340319011553  0.006666673977632384  0.9993713511337666  1.0000
  Cu  Cu15      1.0  0.005000010696008112  0.004999992512703013  0.0  1.0000
  Cu  Cu16      1.0  0.004999993017565239  0.005000017945097669  0.999751518649968  1.0000
  Sn  Sn15      1.0  0.006666673552741219  0.008333340691772854  0.9996269491631723  1.0000
  Sn  Sn16      1.0  0.00833328512127487  0.006666721281886445  0.9998925133772675  1.0000
