data_image0
_chemical_formula_structural       COAl8Fe12Si12
_chemical_formula_sum              "C1 O1 Al8 Fe12 Si12"
_cell_length_a       4.628602030738356
_cell_length_b       10.788904255068232
_cell_length_c       102.8845443725586
_cell_angle_alpha    82.74974309336712
_cell_angle_beta     80.95497732221101
_cell_angle_gamma    95.28671876078428

_space_group_name_H-M_alt    "P 1"
_space_group_IT_number       1

loop_
  _space_group_symop_operation_xyz
  'x, y, z'

loop_
  _atom_site_type_symbol
  _atom_site_label
  _atom_site_symmetry_multiplicity
  _atom_site_fract_x
  _atom_site_fract_y
  _atom_site_fract_z
  _atom_site_occupancy
  C   C1        1.0  0.007424667601134541  0.0024168900485219405  0.9999295593620897  1.0000
  O   O1        1.0  0.007424667601134541  0.0024168900485219405  4.619461364501781e-05  1.0000
  Al  Al1       1.0  0.004439274046184291  0.008162134096473605  0.9991384779584757  1.0000
  Al  Al2       1.0  0.00943927385823003  0.0031621339423114785  0.999538009885253  1.0000
  Al  Al3       1.0  0.0006521870428233174  0.003366501067205538  0.9997840077642594  1.0000
  Al  Al4       1.0  0.005885327495058377  0.008178095482437536  0.9993957428955204  1.0000
  Al  Al5       1.0  0.009331390458262997  0.007138379854268243  0.9998395315833681  1.0000
  Al  Al6       1.0  0.004006318981340649  0.0019046963695077135  0.9994613616364053  1.0000
  Al  Al7       1.0  0.005501039158696498  0.0019334018829709667  0.9997306293821823  1.0000
  Al  Al8       1.0  0.000452372461309985  0.0069206580848180065  0.9993190943557961  1.0000
  Fe  Fe1       1.0  0.007290431148989751  0.006063817979667552  0.9995327750098918  1.0000
  Fe  Fe2       1.0  0.0022904311750378548  0.0010638183510581285  0.9991332425020495  1.0000
  Fe  Fe3       1.0  0.002601215374294133  0.004018974047461933  0.9993243295193839  1.0000
  Fe  Fe4       1.0  0.007826419106697763  0.009007510846062378  0.9997266619682622  1.0000
  Fe  Fe5       1.0  0.004423888451396553  0.0037354366122559946  0.9995782292983603  1.0000
  Fe  Fe6       1.0  0.009423887861001696  0.008735436416049652  0.9991786971326106  1.0000
  Fe  Fe7       1.0  0.005467758165657046  0.006347355765241959  0.9992788749359477  1.0000
  Fe  Fe8       1.0  0.0005590269776420546  0.0013500516088550097  0.999689633287302  1.0000
  Fe  Fe9       1.0  0.0016251404655367903  0.005650936418314434  0.9997084478537361  1.0000
  Fe  Fe10      1.0  0.0068037756150319765  0.0006571913924255114  0.999311875679023  1.0000
  Fe  Fe11      1.0  0.008087870907837075  0.004425601181278785  0.9991456963808325  1.0000
  Fe  Fe12      1.0  0.003087870653572071  0.009425600634703973  0.9995452288520539  1.0000
  Si  Si1       1.0  0.003319478797580596  0.005367490779647316  0.999124565482508  1.0000
  Si  Si2       1.0  0.00831947849965218  0.00036749097585365905  0.999524097695094  1.0000
  Si  Si3       1.0  0.005065028394285063  0.0025895891193649426  0.9991986533809946  1.0000
  Si  Si4       1.0  0.00017338167113653967  0.007610467730581918  0.9995840316719903  1.0000
  Si  Si5       1.0  0.006311320572209102  0.004811371580885852  0.9997382176104558  1.0000
  Si  Si6       1.0  0.0015721677099136795  0.009715301401644295  0.9993330068317636  1.0000
  Si  Si7       1.0  0.0074248633335725475  0.004590895214534033  0.9993736379731307  1.0000
  Si  Si8       1.0  0.0027822295104119087  0.009599129728449524  0.9997720932176789  1.0000
  Si  Si9       1.0  0.002466783079737182  0.00549189716296392  0.9994834659729507  1.0000
  Si  Si10      1.0  0.007631844199101178  0.000284698381127255  0.9998986229215772  1.0000
  Si  Si11      1.0  0.00485828436257281  0.007451654112525302  0.9996681782133792  1.0000
  Si  Si12      1.0  0.00982661808169913  0.002493203279155119  0.9992589186815111  1.0000
