data_image0
_chemical_formula_structural       COGe6Na12Zn6
_chemical_formula_sum              "C1 O1 Ge6 Na12 Zn6"
_cell_length_a       8.226828267071474
_cell_length_b       8.226827765808528
_cell_length_c       107.59385681152344
_cell_angle_alpha    92.23667470359028
_cell_angle_beta     92.23667456723979
_cell_angle_gamma    69.53096172014548

_space_group_name_H-M_alt    "P 1"
_space_group_IT_number       1

loop_
  _space_group_symop_operation_xyz
  'x, y, z'

loop_
  _atom_site_type_symbol
  _atom_site_label
  _atom_site_symmetry_multiplicity
  _atom_site_fract_x
  _atom_site_fract_y
  _atom_site_fract_z
  _atom_site_occupancy
  C   C1        1.0  0.005149665112799256  0.0004929998717980578  0.00016961220822843444  1.0000
  O   O1        1.0  0.005149665112799256  0.0004929998717980578  0.0002811424114357711  1.0000
  Ge  Ge1       1.0  0.0023542442118874773  0.004600907936540644  0.9998397098960922  1.0000
  Ge  Ge2       1.0  0.005678909165706234  0.007923834722114165  0.9995392368792891  1.0000
  Ge  Ge3       1.0  0.009012241893031174  0.0012571681036279056  0.9992480658882547  1.0000
  Ge  Ge4       1.0  0.008866047525684751  0.001110973355264719  0.9996592819176854  1.0000
  Ge  Ge5       1.0  0.0021993808622415324  0.004444306524333722  0.9993681109278348  1.0000
  Ge  Ge6       1.0  0.0055027990973249685  0.007742694383309365  0.9999551379639964  1.0000
  Na  Na1       1.0  0.0051507680158404305  0.0009203226551170108  0.9997548503238061  1.0000
  Na  Na2       1.0  0.008484100743165371  0.004253656299467875  0.9994636795689965  1.0000
  Na  Na3       1.0  0.0017555339487345988  0.007743483923829488  2.8346113246101156e-05  1.0000
  Na  Na4       1.0  0.006060854981190944  0.004781152115124877  0.9997348397800767  1.0000
  Na  Na5       1.0  0.009394188675550554  0.008114485195678147  0.9994436684724923  1.0000
  Na  Na6       1.0  0.002873134224582399  0.0013571057245859097  3.942663430479251e-06  1.0000
  Na  Na7       1.0  0.0025362261147851895  0.008305780832898062  0.9997348397796332  1.0000
  Na  Na8       1.0  0.005869559567386132  0.0016391141880851277  0.9994436685136953  1.0000
  Na  Na9       1.0  0.009120389248319774  0.005106070835127961  3.7673648176874785e-06  1.0000
  Na  Na10      1.0  0.008675396640487517  0.007395694284484419  0.9997548502830157  1.0000
  Na  Na11      1.0  0.0020087302188029664  0.0007290271064128304  0.99946367905741  1.0000
  Na  Na12      1.0  0.005510199330137405  0.003988205892301591  2.7659014070429298e-05  1.0000
  Zn  Zn1       1.0  0.008948842133029064  0.0011638444612516717  0.9998961246296458  1.0000
  Zn  Zn2       1.0  0.0022724782876734117  0.0045174042673793045  0.9995992594197707  1.0000
  Zn  Zn3       1.0  0.005605811498515687  0.007850737969706962  0.9993080883895881  1.0000
  Zn  Zn4       1.0  0.0006058115613729405  0.0028507372317834803  0.9997448450724455  1.0000
  Zn  Zn5       1.0  0.003939144893094549  0.006184070665375677  0.9994536737648325  1.0000
  Zn  Zn6       1.0  0.007304302489651646  0.009507001164740469  1.2956619867680926e-05  1.0000
