data_image0
_chemical_formula_structural       CONi2Sb4Ni2Sb4Ni2Sb4Ni2Sb4
_chemical_formula_sum              "C1 O1 Ni8 Sb16"
_cell_length_a       5.239954471588135
_cell_length_b       7.885036945343018
_cell_length_c       108.56201171875
_cell_angle_alpha    90.0
_cell_angle_beta     90.0
_cell_angle_gamma    90.0

_space_group_name_H-M_alt    "P 1"
_space_group_IT_number       1

loop_
  _space_group_symop_operation_xyz
  'x, y, z'

loop_
  _atom_site_type_symbol
  _atom_site_label
  _atom_site_symmetry_multiplicity
  _atom_site_fract_x
  _atom_site_fract_y
  _atom_site_fract_z
  _atom_site_occupancy
  C   C1        1.0  0.003325644954591331  0.006249999622039534  0.00015954488546281512  1.0000
  O   O1        1.0  0.003325644954591331  0.006249999622039534  0.00027008101249943777  1.0000
  Ni  Ni1       1.0  0.0011085483181971104  0.001249999948030436  0.9994920516680558  1.0000
  Ni  Ni2       1.0  0.0061085480764777  0.003749999962203953  0.9997880576949971  1.0000
  Sb  Sb1       1.0  0.003325644954591331  0.001249999948030436  0.9998721219659734  1.0000
  Sb  Sb2       1.0  0.00889145155383379  0.001249999948030436  0.9997039939730586  1.0000
  Sb  Sb3       1.0  0.008325644712871921  0.003749999962203953  0.0  1.0000
  Sb  Sb4       1.0  0.00389145144008348  0.003749999962203953  0.9995761159390321  1.0000
  Ni  Ni3       1.0  0.0011085483181971104  0.001249999948030436  0.9989000396141732  1.0000
  Ni  Ni4       1.0  0.0061085480764777  0.003749999962203953  0.9991960456411145  1.0000
  Sb  Sb5       1.0  0.003325644954591331  0.001249999948030436  0.9992801099120907  1.0000
  Sb  Sb6       1.0  0.00889145155383379  0.001249999948030436  0.999111981919176  1.0000
  Sb  Sb7       1.0  0.008325644712871921  0.003749999962203953  0.9994079879461173  1.0000
  Sb  Sb8       1.0  0.00389145144008348  0.003749999962203953  0.9989841036106305  1.0000
  Ni  Ni5       1.0  0.0011085483181971104  0.006249999622039534  0.9994920516680558  1.0000
  Ni  Ni6       1.0  0.0061085480764777  0.00875000022677628  0.9997880576949971  1.0000
  Sb  Sb9       1.0  0.003325644954591331  0.006249999622039534  0.9998721219659734  1.0000
  Sb  Sb10      1.0  0.00889145155383379  0.006249999622039534  0.9997039939730586  1.0000
  Sb  Sb11      1.0  0.008325644712871921  0.00875000022677628  0.0  1.0000
  Sb  Sb12      1.0  0.00389145144008348  0.00875000022677628  0.9995761159390321  1.0000
  Ni  Ni7       1.0  0.0011085483181971104  0.006249999622039534  0.9989000396141732  1.0000
  Ni  Ni8       1.0  0.0061085480764777  0.00875000022677628  0.9991960456411145  1.0000
  Sb  Sb13      1.0  0.003325644954591331  0.006249999622039534  0.9992801099120907  1.0000
  Sb  Sb14      1.0  0.00889145155383379  0.006249999622039534  0.999111981919176  1.0000
  Sb  Sb15      1.0  0.008325644712871921  0.00875000022677628  0.9994079879461173  1.0000
  Sb  Sb16      1.0  0.00389145144008348  0.00875000022677628  0.9989841036106305  1.0000
