data_image0
_chemical_formula_structural       COCa4Zn44
_chemical_formula_sum              "C1 O1 Ca4 Zn44"
_cell_length_a       8.416976968676959
_cell_length_b       8.416976687459897
_cell_length_c       105.20279693603516
_cell_angle_alpha    94.18176746883202
_cell_angle_beta     94.18176732886765
_cell_angle_gamma    80.24113986630118

_space_group_name_H-M_alt    "P 1"
_space_group_IT_number       1

loop_
  _space_group_symop_operation_xyz
  'x, y, z'

loop_
  _atom_site_type_symbol
  _atom_site_label
  _atom_site_symmetry_multiplicity
  _atom_site_fract_x
  _atom_site_fract_y
  _atom_site_fract_z
  _atom_site_occupancy
  C   C1        1.0  0.006081449528243805  0.007690819120126518  8.118399842219892e-05  1.0000
  O   O1        1.0  0.006081449528243805  0.007690819120126518  0.00019524963800772495  1.0000
  Ca  Ca1       1.0  0.0073991897723266085  0.009008094950654971  0.9999334816195413  1.0000
  Ca  Ca2       1.0  0.0040201051615986125  0.005629959020388211  0.9993940009459695  1.0000
  Ca  Ca3       1.0  0.0015734555255449369  0.0031830021929820087  0.9998137082290804  1.0000
  Ca  Ca4       1.0  0.008186772038239943  0.009796626096169894  0.9992545769132827  1.0000
  Zn  Zn1       1.0  0.007613669891954286  0.006795466684371653  0.9994484726340721  1.0000
  Zn  Zn2       1.0  0.0009048926168394536  0.0002033744608900224  6.4658388361076255e-06  1.0000
  Zn  Zn3       1.0  0.00795238812031603  0.003670169263495556  0.9993558909949201  1.0000
  Zn  Zn4       1.0  0.001311470588114603  0.007151341298443167  0.9999207528407132  1.0000
  Zn  Zn5       1.0  0.00044160990037640514  0.007943536988243668  0.9994913033038756  1.0000
  Zn  Zn6       1.0  0.007108276475554112  0.004610203172984945  0.9989336057219156  1.0000
  Zn  Zn7       1.0  0.009113661094615822  0.003151572553081957  0.9991198730157196  1.0000
  Zn  Zn8       1.0  0.0024469939570059816  0.006484906017403061  0.9996775703090662  1.0000
  Zn  Zn9       1.0  0.009206528088764253  0.0067084544670317214  0.9997149721366827  1.0000
  Zn  Zn10      1.0  0.005873194407472906  0.003375121013623539  0.9991572748329564  1.0000
  Zn  Zn11      1.0  0.00014656160255629058  0.005864343383673152  0.9992926868589793  1.0000
  Zn  Zn12      1.0  0.0035146611263063977  0.00926970613567817  0.999867492967512  1.0000
  Zn  Zn13      1.0  0.007021264624891279  0.0062030603918361606  0.9992001055042444  1.0000
  Zn  Zn14      1.0  0.0003927704029986599  0.009586178427310302  0.9997507312987627  1.0000
  Zn  Zn15      1.0  0.0006651582257835909  0.00470307028839073  0.9995287051202498  1.0000
  Zn  Zn16      1.0  0.007331824800961297  0.0013697366950189511  0.9989710075395845  1.0000
  Zn  Zn17      1.0  0.00797813401367236  0.002002557417922219  0.9997508819745419  1.0000
  Zn  Zn18      1.0  0.0045932064079928555  0.008631119024498377  0.9992001055066702  1.0000
  Zn  Zn19      1.0  0.007661383934510712  0.005121169794896496  0.9998675690720803  1.0000
  Zn  Zn20      1.0  0.004254489079522526  0.001756415444790569  0.9992926868562845  1.0000
  Zn  Zn21      1.0  0.005098600274338737  0.0008163816095701969  0.9997149721270971  1.0000
  Zn  Zn22      1.0  0.0017652668180202435  0.007483048971073375  0.9991572748351033  1.0000
  Zn  Zn23      1.0  0.0030932161052227335  0.0022750121552041684  0.9995287051187695  1.0000
  Zn  Zn24      1.0  0.009759883017859721  0.008941678692515661  0.9989710075465009  1.0000
  Zn  Zn25      1.0  0.006333682342419942  0.002051463768931603  0.9994913032993409  1.0000
  Zn  Zn26      1.0  0.0030003491110743028  0.008718131093300274  0.9989336057251584  1.0000
  Zn  Zn27      1.0  0.005538986884824151  0.002926610656033089  0.9999208070528689  1.0000
  Zn  Zn28      1.0  0.002060315115840358  0.009562241688096112  0.999355890991537  1.0000
  Zn  Zn29      1.0  0.00518561212500157  0.00922352435521707  0.9994484726335113  1.0000
  Zn  Zn30      1.0  0.008589403254502654  0.002510701044511427  6.814819622359392e-06  1.0000
  Zn  Zn31      1.0  0.004875051948931551  0.004056847865649246  0.9996775703081338  1.0000
  Zn  Zn32      1.0  0.0015417186050994845  0.0007235145784262452  0.9991198730073457  1.0000
  Zn  Zn33      1.0  0.007770105215592097  0.004379959117981663  0.9996031377180118  1.0000
  Zn  Zn34      1.0  0.004436771534300751  0.0010466256645734796  0.9990454401310009  1.0000
  Zn  Zn35      1.0  0.0011034384154415377  0.002713292322465015  0.9993242890631505  1.0000
  Zn  Zn36      1.0  0.004505917390774492  0.006115751917272722  0.9998981006300506  1.0000
  Zn  Zn37      1.0  0.007770105215592097  0.009379959544004597  0.9996031377233301  1.0000
  Zn  Zn38      1.0  0.004436771534300751  0.006046625646822524  0.9990454401337302  1.0000
  Zn  Zn39      1.0  0.002770104918627931  0.009379959309006859  0.9996031377173937  1.0000
  Zn  Zn40      1.0  0.009436771606292063  0.006046625475180881  0.9990454401359817  1.0000
  Zn  Zn41      1.0  0.006520105197594269  0.008129958925691912  0.9989757279755459  1.0000
  Zn  Zn42      1.0  0.009853438428939909  0.0014632922669840776  0.9995334252703274  1.0000
  Zn  Zn43      1.0  0.0056867715522985795  0.0072966258213613185  0.9996728501622099  1.0000
  Zn  Zn44      1.0  0.0023534383209529394  0.00396329229368412  0.9991151525773908  1.0000
