data_image0
_chemical_formula_structural       COAl54Co12
_chemical_formula_sum              "C1 O1 Al54 Co12"
_cell_length_a       10.19296095665644
_cell_length_b       13.978974425128383
_cell_length_c       105.50028991699219
_cell_angle_alpha    107.77669947256265
_cell_angle_beta     112.29066210985833
_cell_angle_gamma    61.207934091603775

_space_group_name_H-M_alt    "P 1"
_space_group_IT_number       1

loop_
  _space_group_symop_operation_xyz
  'x, y, z'

loop_
  _atom_site_type_symbol
  _atom_site_label
  _atom_site_symmetry_multiplicity
  _atom_site_fract_x
  _atom_site_fract_y
  _atom_site_fract_z
  _atom_site_occupancy
  C   C1        1.0  0.0010393627302430373  0.003422126265660362  0.00024008677836664423  1.0000
  O   O1        1.0  0.0010393627302430373  0.003422126265660362  0.0003538307721332652  1.0000
  Al  Al1       1.0  0.0002073315375557886  0.007880988752727122  0.9997216913814791  1.0000
  Al  Al2       1.0  0.0005714099223926992  0.0046258888645093815  3.487492857153488e-05  1.0000
  Al  Al3       1.0  0.0002073315375557886  0.0012143224591996853  0.9994412789576108  1.0000
  Al  Al4       1.0  0.005207331083829841  0.001214322435953016  0.9998618973781488  1.0000
  Al  Al5       1.0  0.005233698422969829  0.007868209466052666  0.00015078311537705934  1.0000
  Al  Al6       1.0  0.005207331083829841  0.0045476555827167345  0.9995814850785307  1.0000
  Al  Al7       1.0  0.007532927530339217  0.0006408667555508904  0.9994610589619118  1.0000
  Al  Al8       1.0  0.007532927530339217  0.007307533049078328  0.9997414713857801  1.0000
  Al  Al9       1.0  0.007876243936797193  0.0038052102979155987  2.417432351034975e-05  1.0000
  Al  Al10      1.0  0.007881734672055465  0.0015622270391978175  0.9998041690892654  1.0000
  Al  Al11      1.0  0.007961477550240983  0.008185700169156557  7.845283431302149e-05  1.0000
  Al  Al12      1.0  0.007881734672055465  0.004895560185961535  0.9995237567896473  1.0000
  Al  Al13      1.0  0.0028817348544142186  0.001787778052493033  0.9994214990591392  1.0000
  Al  Al14      1.0  0.0028817348544142186  0.008454444905729313  0.9997019115056499  1.0000
  Al  Al15      1.0  0.0028407677431386146  0.005227957514538  0.9999901781461151  1.0000
  Al  Al16      1.0  0.0024660897557006807  0.0008493739532629096  0.9999222410226498  1.0000
  Al  Al17      1.0  0.0025329279297917266  0.007533084558220279  0.9993588013836686  1.0000
  Al  Al18      1.0  0.0025329279297917266  0.004199750851747716  0.9996392133781586  1.0000
  Al  Al19      1.0  0.007914529723101466  0.009319016855185719  0.9998444863415343  1.0000
  Al  Al20      1.0  0.007769657849960135  0.005968806734324896  9.405739745364882e-05  1.0000
  Al  Al21      1.0  0.007914529723101466  0.0026523505616582823  0.9995640742001517  1.0000
  Al  Al22      1.0  0.00763239988900361  0.0016366760636944188  6.719532749589429e-05  1.0000
  Al  Al23      1.0  0.007500132479293216  0.008374777041295668  0.999503300934942  1.0000
  Al  Al24      1.0  0.007500132479293216  0.00504144389453195  0.9997837132345602  1.0000
  Al  Al25      1.0  0.00250013266165197  0.003109627952858204  0.9998793088495138  1.0000
  Al  Al26      1.0  0.002258844892826683  0.009687606445187921  0.00014984335063942142  1.0000
  Al  Al27      1.0  0.00250013266165197  0.006442961099621923  0.99959889626741  1.0000
  Al  Al28      1.0  0.002914530122553975  0.0007205344161952172  0.9996596695323314  1.0000
  Al  Al29      1.0  0.002938511601323554  0.007382872040031073  0.9999399404913405  1.0000
  Al  Al30      1.0  0.002914530122553975  0.004053867702886146  0.999379257238374  1.0000
  Al  Al31      1.0  0.00023069904804874606  0.0005451160375734177  0.9996588654207558  1.0000
  Al  Al32      1.0  0.00023582183652855513  0.007199105679324604  0.9999381004994635  1.0000
  Al  Al33      1.0  0.00023069904804874606  0.0038784493242643475  0.9993784531267983  1.0000
  Al  Al34      1.0  0.005183963980387674  0.0031617286884491214  0.9998593647013057  1.0000
  Al  Al35      1.0  0.005167115334041223  0.009853757744966217  0.00013053739953498817  1.0000
  Al  Al36      1.0  0.005183963980387674  0.00649506183521284  0.9995789526841733  1.0000
  Al  Al37      1.0  0.00038364542491340427  0.0017857892637385593  8.63014314431635e-05  1.0000
  Al  Al38      1.0  0.00018396404063119082  0.00855019531028922  0.9995041049243305  1.0000
  Al  Al39      1.0  0.00018396404063119082  0.0052168621635255005  0.9997845172239487  1.0000
  Al  Al40      1.0  0.005230698621459517  0.009266915496023848  0.9998644301899867  1.0000
  Al  Al41      1.0  0.005489970654065068  0.005761504565666038  0.00013539491638827906  1.0000
  Al  Al42      1.0  0.005230698621459517  0.0026002494823508335  0.9995840177774397  1.0000
  Al  Al43      1.0  0.00981603568962982  0.009268249123253953  0.00011462809162034945  1.0000
  Al  Al44      1.0  0.009767389320949074  0.006021338525529649  0.9995534565932924  1.0000
  Al  Al45      1.0  0.009767389320949074  0.0026880053787659303  0.9998338688929106  1.0000
  Al  Al46      1.0  0.0056472728814456075  0.0005009731466329713  0.9995972317480838  1.0000
  Al  Al47      1.0  0.0056472728814456075  0.007167639859942041  0.9998776439064482  1.0000
  Al  Al48      1.0  0.005464077447686588  0.0037737897227251203  0.00013894595839663177  1.0000
  Al  Al49      1.0  0.0006472729009840454  0.0030739731836471372  0.9996095138702401  1.0000
  Al  Al50      1.0  0.0006430400069438046  0.009706254155271895  0.9998841691390644  1.0000
  Al  Al51      1.0  0.0008694884949479748  0.006604542294153951  0.0001821438042719609  1.0000
  Al  Al52      1.0  0.0046525119546757705  0.0019562528499786403  0.00011621725626200724  1.0000
  Al  Al53      1.0  0.004767389720401583  0.008594338590712335  0.9995657387305109  1.0000
  Al  Al54      1.0  0.004767389720401583  0.005261004884239772  0.9998461510074866  1.0000
  Co  Co1       1.0  0.00690675880176585  0.00014624220666666006  5.047913652319213e-05  1.0000
  Co  Co2       1.0  0.0068721909631143194  0.006841841782594115  0.9994881494444409  1.0000
  Co  Co3       1.0  0.0068721909631143194  0.0035085080761215522  0.9997685617214165  1.0000
  Co  Co4       1.0  0.008542471673467873  0.009709923180411577  0.9996674943983554  1.0000
  Co  Co5       1.0  0.00853540744267141  0.006352300782732717  0.9999392378265234  1.0000
  Co  Co6       1.0  0.008542471673467873  0.003043256327175296  0.9993870819518448  1.0000
  Co  Co7       1.0  0.003542471638732872  0.002253469814823981  0.9996748210284933  1.0000
  Co  Co8       1.0  0.0035590170051032106  0.008894533451927242  0.9999537354169767  1.0000
  Co  Co9       1.0  0.003542471638732872  0.0055868029615877  0.9993944087288752  1.0000
  Co  Co10      1.0  0.0017673911975074942  0.0026801150858019825  4.732471901658089e-05  1.0000
  Co  Co11      1.0  0.0018721913625668288  0.009385388848991146  0.9994954759723725  1.0000
  Co  Co12      1.0  0.0018721913625668288  0.0060520551425185835  0.999775888531834  1.0000
