data_image0
_chemical_formula_structural       Al10V30CO
_chemical_formula_sum              "Al10 V30 C1 O1"
_cell_length_a       6.817296981811523
_cell_length_b       10.779093289031593
_cell_length_c       36.602203369140625
_cell_angle_alpha    104.96321633031343
_cell_angle_beta     90.0
_cell_angle_gamma    71.56505173497682

_space_group_name_H-M_alt    "P 1"
_space_group_IT_number       1

loop_
  _space_group_symop_operation_xyz
  'x, y, z'

loop_
  _atom_site_type_symbol
  _atom_site_label
  _atom_site_symmetry_multiplicity
  _atom_site_fract_x
  _atom_site_fract_y
  _atom_site_fract_z
  _atom_site_occupancy
  Al  Al1       1.0  0.008321272821940135  0.003977564137899119  0.9999435970561703  1.0000
  Al  Al2       1.0  0.0062765801601397005  0.00800694959999147  0.9994597091469328  1.0000
  Al  Al3       1.0  0.0002500000059406841  5.185704765730967e-05  0.9981168352207276  1.0000
  Al  Al4       1.0  0.0042499997769760356  0.002051856964604249  0.9990292883230368  1.0000
  Al  Al5       1.0  0.002249999818620875  0.0060518568813145695  0.9985730617949603  1.0000
  Al  Al6       1.0  0.008249999684901154  0.004051857017606772  0.9988011750661954  1.0000
  Al  Al7       1.0  0.006250000010488084  0.008051856366432915  0.9983449484949383  1.0000
  Al  Al8       1.0  0.0002500000059406841  5.185704765730967e-05  0.9992574015902236  1.0000
  Al  Al9       1.0  0.004348800103468803  0.002055243825842068  0.00018279617354919025  1.0000
  Al  Al10      1.0  0.002132061308606764  0.006129136453209252  0.9997088486059008  1.0000
  V   V1        1.0  0.006228023382871743  0.0056028645562010895  0.9995129753040423  1.0000
  V   V2        1.0  0.0042500000726317265  0.009551856548155852  0.9990292883402243  1.0000
  V   V3        1.0  0.008456399265131923  0.0013822882028255736  0.9999416363650028  1.0000
  V   V4        1.0  0.002249999933767041  0.0035518569570324597  0.9985730617844333  1.0000
  V   V5        1.0  0.0002499998807645182  0.007551857063037506  0.9981168352707505  1.0000
  V   V6        1.0  0.0042500003029240585  0.004551856699591632  0.9990292883191703  1.0000
  V   V7        1.0  0.0022500004392162613  0.008551856427007226  0.9985730617767002  1.0000
  V   V8        1.0  0.006364601361740212  0.0005288792425642609  0.9995119210435233  1.0000
  V   V9        1.0  0.00025000006909250695  0.002551857025178561  0.9981168352353028  1.0000
  V   V10       1.0  0.008111241456474487  0.006562325697416288  0.9999257270377934  1.0000
  V   V11       1.0  0.0007500000564849967  0.004051857017606772  0.9993714582509433  1.0000
  V   V12       1.0  0.008749999704477861  0.008051856366432915  0.9989152316796862  1.0000
  V   V13       1.0  0.0029097825408983835  0.009948142785526713  0.9998050510419355  1.0000
  V   V14       1.0  0.006750000017412639  0.002051856964604249  0.9984590051382888  1.0000
  V   V15       1.0  0.00498194592725379  0.005948976333495027  0.00017308985554312001  1.0000
  V   V16       1.0  0.009749999447037033  0.0060518568813145695  0.9991433449797084  1.0000
  V   V17       1.0  0.0077499999758861085  5.185704765730967e-05  0.9986871184054756  1.0000
  V   V18       1.0  0.0017730019626595467  0.002064102251135284  0.9996105342352114  1.0000
  V   V19       1.0  0.005749999990911377  0.004051857017606772  0.9982308918814473  1.0000
  V   V20       1.0  0.003611337832961115  0.008176286604451195  1.0301083938832664e-05  1.0000
  V   V21       1.0  0.0007500000823431377  0.0015518569986772994  0.9988011750484715  1.0000
  V   V22       1.0  0.008750000176776126  0.005551856820740257  0.9983449485131983  1.0000
  V   V23       1.0  0.0027500001212011215  0.007551857063037506  0.9992574016402465  1.0000
  V   V24       1.0  0.006582776671912051  0.009507270825569725  0.0001154339560150313  1.0000
  V   V25       1.0  0.0046215343195783135  0.0036256262475279624  0.9997313098767384  1.0000
  V   V26       1.0  0.007749999834120371  0.002551857025178561  0.9992574016047988  1.0000
  V   V27       1.0  0.005749999875765211  0.006551856941888882  0.9988011750767224  1.0000
  V   V28       1.0  0.009539808889558356  0.008705666720860485  0.9997296637479256  1.0000
  V   V29       1.0  0.0037499999025334112  0.0005518570194997192  0.9983449484957426  1.0000
  V   V30       1.0  0.0017970036316932096  0.004436812451267966  9.762045670024682e-05  1.0000
  C   C1        1.0  0.0017730019626595467  0.002064102251135284  0.0001569497208348293  1.0000
  O   O1        1.0  0.0017730019626595467  0.002064102251135284  0.0004847986865200453  1.0000
