data_image0
_chemical_formula_structural       COGa4Pt12
_chemical_formula_sum              "C1 O1 Ga4 Pt12"
_cell_length_a       5.576406478881836
_cell_length_b       5.576406478881836
_cell_length_c       102.0157470703125
_cell_angle_alpha    90.0
_cell_angle_beta     90.0
_cell_angle_gamma    90.0

_space_group_name_H-M_alt    "P 1"
_space_group_IT_number       1

loop_
  _space_group_symop_operation_xyz
  'x, y, z'

loop_
  _atom_site_type_symbol
  _atom_site_label
  _atom_site_symmetry_multiplicity
  _atom_site_fract_x
  _atom_site_fract_y
  _atom_site_fract_z
  _atom_site_occupancy
  C   C1        1.0  0.0047402977985214  0.0025000205156610264  0.00016976813978752275  1.0000
  O   O1        1.0  0.0047402977985214  0.0025000205156610264  0.0002873972770855545  1.0000
  Ga  Ga1       1.0  0.009999976511538859  0.005000056396356361  0.9998183671083853  1.0000
  Ga  Ga2       1.0  0.005000023662152835  1.7899999987559883e-08  0.9994188845309896  1.0000
  Ga  Ga3       1.0  2.359999894431124e-08  0.005000017983770591  0.9994188845309896  1.0000
  Ga  Ga4       1.0  0.005000082784132673  0.009999981855898617  0.99981836418704  1.0000
  Pt  Pt1       1.0  0.0022403088479852023  0.002759698280054627  0.9999999836404663  1.0000
  Pt  Pt2       1.0  0.00788709590547649  0.002887090280537843  0.9996183265278608  1.0000
  Pt  Pt3       1.0  0.0072402867490575975  0.002240342584256183  0.9999999877303497  1.0000
  Pt  Pt4       1.0  0.007759743820680227  0.00724026537161856  0.0  1.0000
  Pt  Pt5       1.0  0.004999971554645181  0.00499989406142867  0.999809610667964  1.0000
  Pt  Pt6       1.0  0.002887095958920087  0.002112945573435693  0.9996183265278608  1.0000
  Pt  Pt7       1.0  0.007112951365385583  0.00788709056111673  0.9996183265278608  1.0000
  Pt  Pt8       1.0  0.0021129512518179377  0.007112945352980854  0.9996183265278608  1.0000
  Pt  Pt9       1.0  0.005000023662152835  0.005000017983770591  0.9994232475602046  1.0000
  Pt  Pt10      1.0  3.969999892600368e-08  1.4239999933156255e-07  0.999809610667964  1.0000
  Pt  Pt11      1.0  2.359999894431124e-08  1.7899999987559883e-08  0.9994232475602046  1.0000
  Pt  Pt12      1.0  0.0027597500535397963  0.0077597965962328515  0.9999999964943856  1.0000
