data_image0
_chemical_formula_structural       HAs24Rh8
_chemical_formula_sum              "H1 As24 Rh8"
_cell_length_a       8.622034072875977
_cell_length_b       8.622034072875977
_cell_length_c       104.4881362915039
_cell_angle_alpha    90.0
_cell_angle_beta     90.0
_cell_angle_gamma    90.0

_space_group_name_H-M_alt    "P 1"
_space_group_IT_number       1

loop_
  _space_group_symop_operation_xyz
  'x, y, z'

loop_
  _atom_site_type_symbol
  _atom_site_label
  _atom_site_symmetry_multiplicity
  _atom_site_fract_x
  _atom_site_fract_y
  _atom_site_fract_z
  _atom_site_occupancy
  H   H1        1.0  0.009402062385837715  0.009743554621696304  8.350332416509431e-05  1.0000
  As  As1       1.0  0.009132453019116107  0.006772187198659685  0.9993960280084238  1.0000
  As  As2       1.0  0.009132453019116107  0.0037407042319711247  0.9993960280084238  1.0000
  As  As3       1.0  0.007065454355244823  0.0017857376574145396  0.9998119023205777  1.0000
  As  As4       1.0  0.0055979377351408465  0.006721930543677381  0.999521102449102  1.0000
  As  As5       1.0  0.007065330352218783  0.008726942384782506  0.9998117945066357  1.0000
  As  As6       1.0  0.0055979377351408465  0.006721930543677381  0.9992709538529677  1.0000
  As  As7       1.0  0.004082196467829713  0.0002564455489698821  0.9995169553202231  1.0000
  As  As8       1.0  0.0005979376768118967  0.008790960783257518  0.9996835381285591  1.0000
  As  As9       1.0  0.0021136793221810364  0.0052564459313485514  0.999687685257438  1.0000
  As  As10      1.0  0.0005998168951442441  0.008766148080193274  0.9999312055779178  1.0000
  As  As11      1.0  0.007113679434518272  0.0002564455489698821  0.9995169553202231  1.0000
  As  As12      1.0  0.009082196796200094  0.0052564459313485514  0.999687685257438  1.0000
  As  As13      1.0  0.004134180955917016  0.0017857543999833865  0.9998120392271707  1.0000
  As  As14      1.0  0.004134394828731964  0.008727393461992214  0.9998120044300783  1.0000
  As  As15      1.0  0.0020634226671987325  0.006772187198659685  0.9993960280084238  1.0000
  As  As16      1.0  0.0005997230827504148  0.0017470780937979007  0.9999313168145245  1.0000
  As  As17      1.0  0.0020634226671987325  0.0037407042319711247  0.9993960280084238  1.0000
  As  As18      1.0  0.0005979376768118967  0.0017219305393567181  0.9996835381285591  1.0000
  As  As19      1.0  0.009075200778786704  0.005255885109300467  0.9999344713706044  1.0000
  As  As20      1.0  0.0055979377351408465  0.0037909608869534286  0.9992709538529677  1.0000
  As  As21      1.0  0.007113679434518272  0.0002564455489698821  0.9992751009818466  1.0000
  As  As22      1.0  0.0055979377351408465  0.0037909608869534286  0.999521102449102  1.0000
  As  As23      1.0  0.002120236144207773  0.005256292547814599  0.9999346048545326  1.0000
  As  As24      1.0  0.004082196467829713  0.0002564455489698821  0.9992751009818466  1.0000
  Rh  Rh1       1.0  0.008204402274374844  0.007740031248969954  0.9999998636638512  1.0000
  Rh  Rh2       1.0  0.003097937786988801  0.007756446311566889  0.9996023205740526  1.0000
  Rh  Rh3       1.0  0.00809793768329289  0.00275644576716336  0.9996023205740526  1.0000
  Rh  Rh4       1.0  0.00809793768329289  0.007756446311566889  0.9996023205740526  1.0000
  Rh  Rh5       1.0  0.003097937786988801  0.00275644576716336  0.9996023205740526  1.0000
  Rh  Rh6       1.0  0.008204344377491606  0.002773110780110693  0.9999998750727339  1.0000
  Rh  Rh7       1.0  0.0029965959899077056  0.007736829637740135  0.0  1.0000
  Rh  Rh8       1.0  0.0029970561405095624  0.002776402477162566  2.9092651007424425e-08  1.0000
