data_image0
_chemical_formula_structural       COAl12Ni8Al12Ni8
_chemical_formula_sum              "C1 O1 Al24 Ni16"
_cell_length_a       7.042374610900879
_cell_length_b       10.717490649763286
_cell_length_c       102.52733612060547
_cell_angle_alpha    100.93446192912474
_cell_angle_beta     90.0
_cell_angle_gamma    70.81946044330573

_space_group_name_H-M_alt    "P 1"
_space_group_IT_number       1

loop_
  _space_group_symop_operation_xyz
  'x, y, z'

loop_
  _atom_site_type_symbol
  _atom_site_label
  _atom_site_symmetry_multiplicity
  _atom_site_fract_x
  _atom_site_fract_y
  _atom_site_fract_z
  _atom_site_occupancy
  C   C1        1.0  0.005395589123295164  0.009373377090187623  0.00032530071885495033  1.0000
  O   O1        1.0  0.005395589123295164  0.009373377090187623  0.0004423423310542026  1.0000
  Al  Al1       1.0  0.007524188504966487  0.005353748431788259  0.9995069558760339  1.0000
  Al  Al2       1.0  2.418857838324003e-05  0.00035374801385141505  0.999407813612323  1.0000
  Al  Al3       1.0  0.005024188290749208  0.00035374801385141505  0.9996060982394415  1.0000
  Al  Al4       1.0  0.0025241880817807867  0.005353748431788259  0.9997052405031523  1.0000
  Al  Al5       1.0  0.007572565016380464  0.008590327613798436  0.9997694168551449  1.0000
  Al  Al6       1.0  7.256564273380558e-05  0.003590327313259582  0.9996702745937618  1.0000
  Al  Al7       1.0  0.005072565272446317  0.003590327313259582  0.9994719899666433  1.0000
  Al  Al8       1.0  0.00257256512217689  0.008590327613798436  0.9995711322280264  1.0000
  Al  Al9       1.0  0.004975810785318831  0.0071171695503169366  0.9997402064125429  1.0000
  Al  Al10      1.0  0.00747581102950665  0.0021171690619412984  0.9996410641474354  1.0000
  Al  Al11      1.0  0.0024758111353030757  0.0021171690619412984  0.9994427795203169  1.0000
  Al  Al12      1.0  0.009975811208504532  0.0071171695503169366  0.9995419217854244  1.0000
  Ni  Ni1       1.0  0.008823816648005902  0.0060878243505475575  0.9997197960916  1.0000
  Ni  Ni2       1.0  0.0013238171890729087  0.0010878239560903117  0.9996206538283546  1.0000
  Ni  Ni3       1.0  0.006323816951030951  0.0010878239560903117  0.9994223692012362  1.0000
  Ni  Ni4       1.0  0.003823816753802329  0.0060878243505475575  0.9995215114644815  1.0000
  Ni  Ni5       1.0  0.0037245593415301767  0.009619672437894246  0.9997898271686387  1.0000
  Ni  Ni6       1.0  0.006224559491799603  0.004619672137355393  0.9996906849072557  1.0000
  Ni  Ni7       1.0  0.0012245598620870917  0.004619672137355393  0.9994924002801372  1.0000
  Ni  Ni8       1.0  0.008724559764715877  0.009619672437894246  0.9995915425415203  1.0000
  Al  Al13      1.0  0.007526812850793715  0.005340065649106222  0.9999006822038534  1.0000
  Al  Al14      1.0  2.418857838324003e-05  0.00035374801385141505  0.999804382575883  1.0000
  Al  Al15      1.0  0.0049795774711766175  0.00045553932629046576  7.629251450396583e-06  1.0000
  Al  Al16      1.0  0.0025542133025352764  0.005315393663222411  0.00010539602324750535  1.0000
  Al  Al17      1.0  0.0073811833272966676  0.008551657279435737  0.00013872297959890907  1.0000
  Al  Al18      1.0  6.177516957088455e-05  0.0035838822575324654  6.78432973236723e-05  1.0000
  Al  Al19      1.0  0.005072565272446317  0.003590327313259582  0.9998685592208801  1.0000
  Al  Al20      1.0  0.002507525198322025  0.008603253789915166  0.9999666064316709  1.0000
  Al  Al21      1.0  0.005034011290458424  0.007037579348268271  0.00013265874480466203  1.0000
  Al  Al22      1.0  0.0075740079363956275  0.0021301125190421417  3.241544271662589e-05  1.0000
  Al  Al23      1.0  0.0024758111353030757  0.0021171690619412984  0.9998393484838769  1.0000
  Al  Al24      1.0  2.6859663681793074e-05  0.00710892877493631  0.9999367245550606  1.0000
  Ni  Ni9       1.0  0.008829377447581332  0.006055871435248543  0.00010678241037565983  1.0000
  Ni  Ni10      1.0  0.001295616859954726  0.0010930291951256926  1.4787522872108625e-05  1.0000
  Ni  Ni11      1.0  0.006323816951030951  0.0010878239560903117  0.9998189381647963  1.0000
  Ni  Ni12      1.0  0.003791602079504293  0.0061004695228356635  0.9999152598706983  1.0000
  Ni  Ni13      1.0  0.00376078725091256  0.00949351223770171  0.0001669797946677515  1.0000
  Ni  Ni14      1.0  0.006260376825371312  0.004603805939898  8.013016364759671e-05  1.0000
  Ni  Ni15      1.0  0.0012245598620870917  0.004619672137355393  0.9998889695343741  1.0000
  Ni  Ni16      1.0  0.008694591130131815  0.009646252094154735  0.9999888193394907  1.0000
