data_image0
_chemical_formula_structural       HCu4In4Pd8
_chemical_formula_sum              "H1 Cu4 In4 Pd8"
_cell_length_a       4.509380340576172
_cell_length_b       4.509380340576172
_cell_length_c       108.26335906982422
_cell_angle_alpha    90.0
_cell_angle_beta     90.0
_cell_angle_gamma    90.0

_space_group_name_H-M_alt    "P 1"
_space_group_IT_number       1

loop_
  _space_group_symop_operation_xyz
  'x, y, z'

loop_
  _atom_site_type_symbol
  _atom_site_label
  _atom_site_symmetry_multiplicity
  _atom_site_fract_x
  _atom_site_fract_y
  _atom_site_fract_z
  _atom_site_occupancy
  H   H1        1.0  0.004999996414638227  0.009999995307637127  0.00011380136917520037  1.0000
  Cu  Cu1       1.0  0.005000003436660134  0.00500000467584047  0.9995670054560176  1.0000
  Cu  Cu2       1.0  0.009999996959877576  4.900000111022571e-09  0.9998640207312463  1.0000
  Cu  Cu3       1.0  0.005000003436660134  0.00500000467584047  0.9989779579547148  1.0000
  Cu  Cu4       1.0  3.4999999667518884e-09  4.500000182352325e-09  0.9992724819806424  1.0000
  In  In1       1.0  3.4999999667518884e-09  4.500000182352325e-09  0.9995670054560176  1.0000
  In  In2       1.0  0.005000017480703947  0.005000018719884283  0.9998628304371051  1.0000
  In  In3       1.0  3.4999999667518884e-09  4.500000182352325e-09  0.9989779579547148  1.0000
  In  In4       1.0  0.005000003436660134  0.00500000467584047  0.9992724819806424  1.0000
  Pd  Pd1       1.0  0.005000003436660134  4.500000182352325e-09  0.9997142677442576  1.0000
  Pd  Pd2       1.0  0.004999996414638227  0.009999995307637127  0.0  1.0000
  Pd  Pd3       1.0  0.009999996133757351  0.005000012110922489  0.0  1.0000
  Pd  Pd4       1.0  3.4999999667518884e-09  0.00500000467584047  0.9997142677442576  1.0000
  Pd  Pd5       1.0  0.005000003436660134  4.500000182352325e-09  0.9991252199676787  1.0000
  Pd  Pd6       1.0  0.005000003436660134  4.500000182352325e-09  0.99941974371833  1.0000
  Pd  Pd7       1.0  3.4999999667518884e-09  0.00500000467584047  0.99941974371833  1.0000
  Pd  Pd8       1.0  3.4999999667518884e-09  0.00500000467584047  0.9991252199676787  1.0000
