data_image0
_chemical_formula_structural       COK6In12Ga12
_chemical_formula_sum              "C1 O1 K6 In12 Ga12"
_cell_length_a       4.879133701324463
_cell_length_b       15.46318070306219
_cell_length_c       108.84880065917969
_cell_angle_alpha    61.263011264350865
_cell_angle_beta     90.0
_cell_angle_gamma    90.0

_space_group_name_H-M_alt    "P 1"
_space_group_IT_number       1

loop_
  _space_group_symop_operation_xyz
  'x, y, z'

loop_
  _atom_site_type_symbol
  _atom_site_label
  _atom_site_symmetry_multiplicity
  _atom_site_fract_x
  _atom_site_fract_y
  _atom_site_fract_z
  _atom_site_occupancy
  C   C1        1.0  0.002500000038175735  0.003509501820194539  0.9997602957274929  1.0000
  O   O1        1.0  0.002500000038175735  0.003509501820194539  0.9998705400723215  1.0000
  K   K1        1.0  0.002500000038175735  0.002916666871815807  0.9992409426067688  1.0000
  K   K2        1.0  0.002500000038175735  0.009583334007394794  0.9984478180961942  1.0000
  K   K3        1.0  0.002500000038175735  0.006249999890098675  0.9988443806628092  1.0000
  K   K4        1.0  0.00750000030540588  0.002916666871815807  0.9986460992204789  1.0000
  K   K5        1.0  0.00750000030540588  0.009583334007394794  0.9990426614824841  1.0000
  K   K6        1.0  0.00750000030540588  0.006249999890098675  0.9994392240490991  1.0000
  In  In1       1.0  0.00750000030540588  0.0020833333424917773  0.9990426616921754  1.0000
  In  In2       1.0  0.00750000030540588  0.008750000065940795  0.9994392239823298  1.0000
  In  In3       1.0  0.00750000030540588  0.005416667047657927  0.9986460991537095  1.0000
  In  In4       1.0  0.002500000038175735  0.0037499999890098674  0.9988443807108126  1.0000
  In  In5       1.0  0.002500000038175735  0.0004166666959736867  0.9992409426735382  1.0000
  In  In6       1.0  0.002500000038175735  0.007083333282046049  0.9984478182004958  1.0000
  In  In7       1.0  0.002500000038175735  0.0020833333424917773  0.9984478183058855  1.0000
  In  In8       1.0  0.002500000038175735  0.008750000065940795  0.9988443805960399  1.0000
  In  In9       1.0  0.002500000038175735  0.005416667047657927  0.9992409430875906  1.0000
  In  In10      1.0  0.00750000030540588  0.0004166666959736867  0.9986460992872482  1.0000
  In  In11      1.0  0.00750000030540588  0.007083333282046049  0.9990426615867857  1.0000
  In  In12      1.0  0.00750000030540588  0.0037499999890098674  0.9994392240971025  1.0000
  Ga  Ga1       1.0  0.002500000038175735  0.001614633039871005  0.9989311405741097  1.0000
  Ga  Ga2       1.0  0.002500000038175735  0.008281300038073336  0.999327702845498  1.0000
  Ga  Ga3       1.0  0.002500000038175735  0.004947966470283842  0.9985345780544098  1.0000
  Ga  Ga4       1.0  0.00750000030540588  0.0042187002916306395  0.9989559018288783  1.0000
  Ga  Ga5       1.0  0.00750000030540588  0.0008853669985944588  0.9993524643391951  1.0000
  Ga  Ga6       1.0  0.00750000030540588  0.007552033859420134  0.9985593392997955  1.0000
  Ga  Ga7       1.0  0.00750000030540588  0.001614633039871005  0.9995259839603996  1.0000
  Ga  Ga8       1.0  0.00750000030540588  0.008281300038073336  0.9987328594592081  1.0000
  Ga  Ga9       1.0  0.00750000030540588  0.004947966470283842  0.9991294214406997  1.0000
  Ga  Ga10      1.0  0.002500000038175735  0.0008853669985944588  0.9987576209529052  1.0000
  Ga  Ga11      1.0  0.002500000038175735  0.007552033859420134  0.9991541832336766  1.0000
  Ga  Ga12      1.0  0.002500000038175735  0.0042187002916306395  0.9995507452151682  1.0000
