data_image0
_chemical_formula_structural       COFe6As12Fe6As12
_chemical_formula_sum              "C1 O1 Fe12 As24"
_cell_length_a       7.895859412258594
_cell_length_b       6.029021263122559
_cell_length_c       106.5025405883789
_cell_angle_alpha    90.0
_cell_angle_beta     104.07194331612571
_cell_angle_gamma    90.0

_space_group_name_H-M_alt    "P 1"
_space_group_IT_number       1

loop_
  _space_group_symop_operation_xyz
  'x, y, z'

loop_
  _atom_site_type_symbol
  _atom_site_label
  _atom_site_symmetry_multiplicity
  _atom_site_fract_x
  _atom_site_fract_y
  _atom_site_fract_z
  _atom_site_occupancy
  C   C1        1.0  0.007223636334091587  0.00396274550571293  0.00013910515642004802  1.0000
  O   O1        1.0  0.007223636334091587  0.00396274550571293  0.00025177875324130974  1.0000
  Fe  Fe1       1.0  0.004978372508943054  6.583000144138381e-05  0.9997298534975128  1.0000
  Fe  Fe2       1.0  0.0016450388448582102  6.583000144138381e-05  0.9995394433118637  1.0000
  Fe  Fe3       1.0  0.008266315878618896  0.009934169848140278  0.9999112879576073  1.0000
  Fe  Fe4       1.0  0.0048663464859745485  0.005165865441461544  2.0621249586273743e-06  1.0000
  Fe  Fe5       1.0  0.0016402384487642096  0.005009494631013651  0.9998299104597801  1.0000
  Fe  Fe6       1.0  0.008311705686628618  0.005065829793481756  0.999634648388074  1.0000
  As  As1       1.0  0.004381181687361283  0.006458426322117114  0.9997980805199912  1.0000
  As  As2       1.0  0.001047848509675719  0.006458426322117114  0.9996076697834553  1.0000
  As  As3       1.0  0.007648239071954532  0.006527677302876498  0.9999887606351151  1.0000
  As  As4       1.0  0.002395521074723568  0.0038336145100940585  4.318132300322369e-05  1.0000
  As  As5       1.0  0.008952151509780253  0.003653086244265359  0.9998612481177752  1.0000
  As  As6       1.0  0.005575562844125545  0.0036732335737929196  0.9996616270259212  1.0000
  As  As7       1.0  0.004179331336559227  0.008644818612899913  7.410199512711946e-05  1.0000
  As  As8       1.0  0.001144815732535682  0.008692190618876926  0.9999019105834815  1.0000
  As  As9       1.0  0.0077145153514461265  0.008673233660297945  0.9997028754193202  1.0000
  As  As10      1.0  0.00569931935852947  0.001397813245129579  0.9999541277775454  1.0000
  As  As11      1.0  0.002242229180040701  0.0014584262356120885  0.9997568321265923  1.0000
  As  As12      1.0  0.00890889602181111  0.0014584262356120885  0.9995664219164825  1.0000
  Fe  Fe7       1.0  0.004978372508943054  6.583000144138381e-05  0.999158622365218  1.0000
  Fe  Fe8       1.0  0.0016450388448582102  6.583000144138381e-05  0.998968212179569  1.0000
  Fe  Fe9       1.0  0.008311705686628618  6.583000144138381e-05  0.9993490328219267  1.0000
  Fe  Fe10      1.0  0.004978372508943054  0.005065829793481756  0.9994442382111928  1.0000
  Fe  Fe11      1.0  0.0016450388448582102  0.005065829793481756  0.9992538277457164  1.0000
  Fe  Fe12      1.0  0.008311705686628618  0.005065829793481756  0.9990634172557792  1.0000
  As  As13      1.0  0.004381181687361283  0.006458426322117114  0.9992268491078691  1.0000
  As  As14      1.0  0.001047848509675719  0.006458426322117114  0.9990364389309878  1.0000
  As  As15      1.0  0.0077145153514461265  0.006458426322117114  0.9994172595733455  1.0000
  As  As16      1.0  0.002242229180040701  0.0036732335737929196  0.9994712162806175  1.0000
  As  As17      1.0  0.00890889602181111  0.0036732335737929196  0.9992808060705077  1.0000
  As  As18      1.0  0.005575562844125545  0.0036732335737929196  0.9990903956137992  1.0000
  As  As19      1.0  0.004381181687361283  0.008673233660297945  0.9995124646740166  1.0000
  As  As20      1.0  0.001047848509675719  0.008673233660297945  0.9993220544971353  1.0000
  As  As21      1.0  0.0077145153514461265  0.008673233660297945  0.9991316440071981  1.0000
  As  As22      1.0  0.005575562844125545  0.0014584262356120885  0.9993760111799466  1.0000
  As  As23      1.0  0.002242229180040701  0.0014584262356120885  0.9991856009942975  1.0000
  As  As24      1.0  0.00890889602181111  0.0014584262356120885  0.9989951905043604  1.0000
