data_image0
_chemical_formula_structural       COGa2Co2Ga2Co2Ga2Co2Ga2Co2Ga2Co2Ga2Co2Ga2Co2Ga2Co2
_chemical_formula_sum              "C1 O1 Ga16 Co16"
_cell_length_a       5.807800769805908
_cell_length_b       8.213470458984375
_cell_length_c       98.74714660644531
_cell_angle_alpha    90.0
_cell_angle_beta     90.0
_cell_angle_gamma    90.0

_space_group_name_H-M_alt    "P 1"
_space_group_IT_number       1

loop_
  _space_group_symop_operation_xyz
  'x, y, z'

loop_
  _atom_site_type_symbol
  _atom_site_label
  _atom_site_symmetry_multiplicity
  _atom_site_fract_x
  _atom_site_fract_y
  _atom_site_fract_z
  _atom_site_occupancy
  C   C1        1.0  0.001249999881335684  0.0012500002902775145  0.00015132653218507693  1.0000
  O   O1        1.0  0.001249999881335684  0.0012500002902775145  0.0002728492772069753  1.0000
  Ga  Ga1       1.0  0.003749999884542828  0.0037499992833773857  0.9995709189638504  1.0000
  Ga  Ga2       1.0  0.003749999884542828  0.0012499993831602814  0.9993629769460656  1.0000
  Co  Co1       1.0  0.001249999881335684  0.0037499992833773857  0.9993629769460656  1.0000
  Co  Co2       1.0  0.001249999881335684  0.0012499993831602814  0.9995709189638504  1.0000
  Ga  Ga3       1.0  0.003749999884542828  0.0037500006440532355  0.0  1.0000
  Ga  Ga4       1.0  0.003749999884542828  0.0012500002902775145  0.9997778912841288  1.0000
  Co  Co3       1.0  0.001249999881335684  0.003750000190494619  0.999774425362509  1.0000
  Co  Co4       1.0  0.001249999881335684  0.0012500002902775145  0.9999759238565583  1.0000
  Ga  Ga5       1.0  0.003749999884542828  0.008749999310590903  0.9995709189638504  1.0000
  Ga  Ga6       1.0  0.003749999884542828  0.00624999918359449  0.9993629769460656  1.0000
  Co  Co5       1.0  0.001249999881335684  0.008749999310590903  0.9993629769460656  1.0000
  Co  Co6       1.0  0.001249999881335684  0.00624999918359449  0.9995709189638504  1.0000
  Ga  Ga7       1.0  0.003749999884542828  0.008750000217708135  0.0  1.0000
  Ga  Ga8       1.0  0.003749999884542828  0.006250000090711723  0.9997778912841288  1.0000
  Co  Co7       1.0  0.001249999881335684  0.008750000217708135  0.999774425362509  1.0000
  Co  Co8       1.0  0.001249999881335684  0.006250000090711723  0.9999759238565583  1.0000
  Ga  Ga9       1.0  0.008749999409885564  0.0037499992833773857  0.9995709189638504  1.0000
  Ga  Ga10      1.0  0.008749999409885564  0.0012499993831602814  0.9993629769460656  1.0000
  Co  Co9       1.0  0.006249999486857012  0.0037499992833773857  0.9993629769460656  1.0000
  Co  Co10      1.0  0.006249999486857012  0.0012499993831602814  0.9995709189638504  1.0000
  Ga  Ga11      1.0  0.008750000051314299  0.0037500006440532355  0.0  1.0000
  Ga  Ga12      1.0  0.008749999409885564  0.0012500002902775145  0.9997778912841288  1.0000
  Co  Co11      1.0  0.006249999486857012  0.003750000190494619  0.999774425362509  1.0000
  Co  Co12      1.0  0.006249999486857012  0.0012500002902775145  0.9999759238565583  1.0000
  Ga  Ga13      1.0  0.008749999409885564  0.008749999310590903  0.9995709189638504  1.0000
  Ga  Ga14      1.0  0.008749999409885564  0.00624999918359449  0.9993629769460656  1.0000
  Co  Co13      1.0  0.006249999486857012  0.008749999310590903  0.9993629769460656  1.0000
  Co  Co14      1.0  0.006249999486857012  0.00624999918359449  0.9995709189638504  1.0000
  Ga  Ga15      1.0  0.008750000051314299  0.008750000217708135  0.0  1.0000
  Ga  Ga16      1.0  0.008749999409885564  0.006250000090711723  0.9997778912841288  1.0000
  Co  Co15      1.0  0.006249999486857012  0.008750000217708135  0.999774425362509  1.0000
  Co  Co16      1.0  0.006249999486857012  0.006250000090711723  0.9999759238565583  1.0000
