data_image0
_chemical_formula_structural       COFe9Ga12
_chemical_formula_sum              "C1 O1 Fe9 Ga12"
_cell_length_a       6.28305835151877
_cell_length_b       6.283058408171966
_cell_length_c       100.12408447265625
_cell_angle_alpha    87.93820752250711
_cell_angle_beta     87.93820750390827
_cell_angle_gamma    74.68710289302568

_space_group_name_H-M_alt    "P 1"
_space_group_IT_number       1

loop_
  _space_group_symop_operation_xyz
  'x, y, z'

loop_
  _atom_site_type_symbol
  _atom_site_label
  _atom_site_symmetry_multiplicity
  _atom_site_fract_x
  _atom_site_fract_y
  _atom_site_fract_z
  _atom_site_occupancy
  C   C1        1.0  0.0018518540046607707  0.00491189243012404  0.00010460084053858515  1.0000
  O   O1        1.0  0.0018518540046607707  0.00491189243012404  0.00022445236659146266  1.0000
  Fe  Fe1       1.0  0.00495203980346289  0.0049463188806976414  0.9996251028491518  1.0000
  Fe  Fe2       1.0  0.00903154939812854  0.009018099158607486  0.9998507573292572  1.0000
  Fe  Fe3       1.0  0.0007819831035271064  0.0007762625432296987  0.99939166805492  1.0000
  Fe  Fe4       1.0  0.00809709261166808  0.00809137202218367  0.9993536866234465  1.0000
  Fe  Fe5       1.0  0.0020474834933803562  0.0020419524806378963  0.999868014332932  1.0000
  Fe  Fe6       1.0  0.00870069432477971  0.00467253878275165  0.9995105455267079  1.0000
  Fe  Fe7       1.0  0.005302080284017208  0.00117110367802233  0.9997373590192549  1.0000
  Fe  Fe8       1.0  0.0011764426858160706  0.005296298579417094  0.9997376386227529  1.0000
  Fe  Fe9       1.0  0.004678259059910666  0.008694973518058176  0.9995105455279035  1.0000
  Ga  Ga1       1.0  0.007376443857461373  0.007371883127399846  0.9996876344229915  1.0000
  Ga  Ga2       1.0  0.002467065118255339  0.0024613443927139927  0.9995620536678087  1.0000
  Ga  Ga3       1.0  0.004551292415205193  0.004544274256647937  0.9998961584076348  1.0000
  Ga  Ga4       1.0  0.005408780072664228  0.005403059872567093  0.9993640456136365  1.0000
  Ga  Ga5       1.0  0.0027346339319234245  0.00854882914276988  0.9997467537312075  1.0000
  Ga  Ga6       1.0  0.0012756181096531406  0.007213315809898346  0.9995114420293891  1.0000
  Ga  Ga7       1.0  0.007219036693801186  0.0012698975395379307  0.9995114420286807  1.0000
  Ga  Ga8       1.0  0.008555564257786641  0.0027236687373169265  0.9997466025482498  1.0000
  Ga  Ga9       1.0  0.009309493735904  0.005436588471765452  0.9999667081618779  1.0000
  Ga  Ga10      1.0  0.004413033172457433  0.0006847861704223256  0.9992871354957816  1.0000
  Ga  Ga11      1.0  0.0006905066515109002  0.00440731256405493  0.9992871354960691  1.0000
  Ga  Ga12      1.0  0.005448643446124309  0.009315213552842662  0.9999665924281179  1.0000
