data_image0
_chemical_formula_structural       COCa4Na4Pb8
_chemical_formula_sum              "C1 O1 Ca4 Na4 Pb8"
_cell_length_a       5.6121320724487305
_cell_length_b       7.936753273010254
_cell_length_c       103.67279052734375
_cell_angle_alpha    90.0
_cell_angle_beta     90.0
_cell_angle_gamma    90.0

_space_group_name_H-M_alt    "P 1"
_space_group_IT_number       1

loop_
  _space_group_symop_operation_xyz
  'x, y, z'

loop_
  _atom_site_type_symbol
  _atom_site_label
  _atom_site_symmetry_multiplicity
  _atom_site_fract_x
  _atom_site_fract_y
  _atom_site_fract_z
  _atom_site_occupancy
  C   C1        1.0  0.005000022462732892  0.007500008974393944  0.00016381665973683824  1.0000
  O   O1        1.0  0.005000022462732892  0.007500008974393944  0.000279565108804439  1.0000
  Ca  Ca1       1.0  0.009999991822078332  0.005000020689920766  0.9997149132590922  1.0000
  Ca  Ca2       1.0  2.3999999135675764e-09  0.005000007078130788  0.9991706898383571  1.0000
  Ca  Ca3       1.0  0.005000041380814672  7.3499999088230554e-09  0.9999934952368161  1.0000
  Ca  Ca4       1.0  0.005000002217066426  7.150000127505381e-09  0.9994413553111615  1.0000
  Na  Na1       1.0  0.00999999381345536  0.009999992565146441  0.9996988870726197  1.0000
  Na  Na2       1.0  2.3999999135675764e-09  7.150000127505381e-09  0.9991706898383571  1.0000
  Na  Na3       1.0  0.005000003544651113  0.005000010363735266  0.0  1.0000
  Na  Na4       1.0  0.005000002217066426  0.005000007078130788  0.9994413553111615  1.0000
  Pb  Pb1       1.0  0.005000002217066426  0.002500007059355906  0.9991706898383571  1.0000
  Pb  Pb2       1.0  0.004999995579142994  0.0024302614209414024  0.9997236102321063  1.0000
  Pb  Pb3       1.0  0.005000002217066426  0.007500007096905671  0.9991706898383571  1.0000
  Pb  Pb4       1.0  0.004999986949842533  0.007569745460053118  0.9997236108070368  1.0000
  Pb  Pb5       1.0  4.669999837751675e-08  0.007794075738207362  0.9999694493454072  1.0000
  Pb  Pb6       1.0  2.3999999135675764e-09  0.007500007096905671  0.9994413553111615  1.0000
  Pb  Pb7       1.0  2.3999999135675764e-09  0.002500007059355906  0.9994413553111615  1.0000
  Pb  Pb8       1.0  0.00999999779620942  0.002205961417285557  0.9999694412963808  1.0000
