data_image0
_chemical_formula_structural       COPd8V4
_chemical_formula_sum              "C1 O1 Pd8 V4"
_cell_length_a       4.716216731179448
_cell_length_b       4.8032308514758215
_cell_length_c       101.63577270507812
_cell_angle_alpha    86.09170501318098
_cell_angle_beta     89.14650212790463
_cell_angle_gamma    81.05585010196847

_space_group_name_H-M_alt    "P 1"
_space_group_IT_number       1

loop_
  _space_group_symop_operation_xyz
  'x, y, z'

loop_
  _atom_site_type_symbol
  _atom_site_label
  _atom_site_symmetry_multiplicity
  _atom_site_fract_x
  _atom_site_fract_y
  _atom_site_fract_z
  _atom_site_occupancy
  C   C1        1.0  0.005608047133086733  0.007166427332173304  9.253506103537606e-05  1.0000
  O   O1        1.0  0.005608047133086733  0.007166427332173304  0.0002106039653129691  1.0000
  Pd  Pd1       1.0  0.00868714956438818  0.0036692830892091706  0.9998441394592152  1.0000
  Pd  Pd2       1.0  0.00499822690123512  0.0063280375307222065  0.9996472590117328  1.0000
  Pd  Pd3       1.0  0.008108113896123254  0.008566256822792518  0.9999668021409436  1.0000
  Pd  Pd4       1.0  0.004058832454907277  0.0011719626187844752  0.9997813877469893  1.0000
  Pd  Pd5       1.0  0.001248226848412877  0.008828037514984661  0.9994527176153918  1.0000
  Pd  Pd6       1.0  0.007498227132952417  0.0013280374638376384  0.9992581762849075  1.0000
  Pd  Pd7       1.0  0.0004384708904113448  0.003686573930431085  0.99957874241465  1.0000
  Pd  Pd8       1.0  0.006688470418901188  0.0061865739146935396  0.9993842011373552  1.0000
  V   V1        1.0  0.009561528518262991  0.008688877482176033  0.9997182845655556  1.0000
  V   V2        1.0  0.0031404144205811617  0.006254366145931011  0.9998766363751918  1.0000
  V   V3        1.0  0.0020933489097376148  0.0037573055417261  0.9993211887987491  1.0000
  V   V4        1.0  0.0058433487650655595  0.0012573055574636456  0.9995157299019999  1.0000
