data_image0
_chemical_formula_structural       COIn8Pd16In8Pd16
_chemical_formula_sum              "C1 O1 In16 Pd32"
_cell_length_a       12.299385996165181
_cell_length_b       9.479441093575632
_cell_length_c       104.4416275024414
_cell_angle_alpha    117.01103904598577
_cell_angle_beta     110.48939551590273
_cell_angle_gamma    80.8527557325032

_space_group_name_H-M_alt    "P 1"
_space_group_IT_number       1

loop_
  _space_group_symop_operation_xyz
  'x, y, z'

loop_
  _atom_site_type_symbol
  _atom_site_label
  _atom_site_symmetry_multiplicity
  _atom_site_fract_x
  _atom_site_fract_y
  _atom_site_fract_z
  _atom_site_occupancy
  C   C1        1.0  0.0016632443380581556  0.009124178039714492  0.00044466989854938515  1.0000
  O   O1        1.0  0.0016632443380581556  0.009124178039714492  0.0005595668472628142  1.0000
  In  In1       1.0  0.0016077338648217009  0.008990700536797996  0.9995939438608471  1.0000
  In  In2       1.0  0.006607733722552236  0.008990700536797996  0.9998000495783784  1.0000
  In  In3       1.0  0.00338735252295598  0.0009948168497750985  0.9995438079442254  1.0000
  In  In4       1.0  0.008387352704026206  0.0009948168497750985  0.999749913675085  1.0000
  In  In5       1.0  0.004107733955356814  0.005994816951228587  0.9995735029755543  1.0000
  In  In6       1.0  0.00910773413642704  0.005994816951228587  0.999779608706414  1.0000
  In  In7       1.0  0.0008873525940907121  0.003990700325068976  0.9995642488316366  1.0000
  In  In8       1.0  0.005887352936830785  0.003990700325068976  0.9997703545691606  1.0000
  Pd  Pd1       1.0  0.0021615898592974654  0.002302779376018205  0.9997533019601516  1.0000
  Pd  Pd2       1.0  0.0071615900403676925  0.002302779376018205  0.9995471964040152  1.0000
  Pd  Pd3       1.0  0.002833496528480215  0.007682738341381483  0.999796661145554  1.0000
  Pd  Pd4       1.0  0.007833497032890133  0.007682738341381483  0.999590555602746  1.0000
  Pd  Pd5       1.0  0.004661589949832579  0.0026827379091014006  0.9998720171512457  1.0000
  Pd  Pd6       1.0  0.009661590454242497  0.0026827379091014006  0.9996659116084378  1.0000
  Pd  Pd7       1.0  0.0003334964581538324  0.007302779587747225  0.9996779459462015  1.0000
  Pd  Pd8       1.0  0.005333496619015329  0.007302779587747225  0.9998840516762282  1.0000
  Pd  Pd9       1.0  0.0007943592096156278  0.0007148952058861458  0.9998375946734677  1.0000
  Pd  Pd10      1.0  0.005794359148181086  0.0007148952058861458  0.9996314888219858  1.0000
  Pd  Pd11      1.0  0.004200727420666821  0.009270622180686947  0.9997123687139463  1.0000
  Pd  Pd12      1.0  0.009200727278397356  0.009270622180686947  0.9995062628591324  1.0000
  Pd  Pd13      1.0  0.003294359380985664  0.004270622410060053  0.9996750071154074  1.0000
  Pd  Pd14      1.0  0.00829435956205589  0.004270622410060053  0.999881112846267  1.0000
  Pd  Pd15      1.0  0.0017007271684618623  0.005714895307339634  0.9998749559969625  1.0000
  Pd  Pd16      1.0  0.006700727511201935  0.005714895307339634  0.9996688504474903  1.0000
  In  In9       1.0  0.0016077338648217009  0.008990700536797996  6.155147843212497e-06  1.0000
  In  In10      1.0  0.006444372163509023  0.008926538703951901  0.00020652856662096105  1.0000
  In  In11      1.0  0.00338735252295598  0.0009948168497750985  0.9999560195165705  1.0000
  In  In12      1.0  0.008400943317941605  0.0009494143183612874  0.00016681966587662688  1.0000
  In  In13      1.0  0.004107733955356814  0.005994816951228587  0.9999857142625503  1.0000
  In  In14      1.0  0.00925391859769614  0.006023372138369375  0.00019985789314834625  1.0000
  In  In15      1.0  0.0008873525940907121  0.003990700325068976  0.9999764604039819  1.0000
  In  In16      1.0  0.005866011223829454  0.004105220140872633  0.00019609236805723015  1.0000
  Pd  Pd17      1.0  0.0021516033512539745  0.0022848759229832584  0.00015715139301399333  1.0000
  Pd  Pd18      1.0  0.0071615900403676925  0.002302779376018205  0.9999594076910113  1.0000
  Pd  Pd19      1.0  0.002784373469180564  0.007560323679750993  0.0001959343888908174  1.0000
  Pd  Pd20      1.0  0.007833497032890133  0.007682738341381483  2.7668897421535726e-06  1.0000
  Pd  Pd21      1.0  0.0046256416896049875  0.002527346011530593  0.0002578673930850457  1.0000
  Pd  Pd22      1.0  0.009676054732004474  0.0026728241388500845  7.670167444576781e-05  1.0000
  Pd  Pd23      1.0  0.0003239455695097872  0.007376844604393642  9.064935313443492e-05  1.0000
  Pd  Pd24      1.0  0.0052913079027407444  0.007242883212446414  0.0002758776034665375  1.0000
  Pd  Pd25      1.0  0.0007241459147597523  0.0007798815137409592  0.00022969282133471257  1.0000
  Pd  Pd26      1.0  0.005900111274380122  0.0007578146080270536  5.320448453432486e-05  1.0000
  Pd  Pd27      1.0  0.004070079431576892  0.009285104445643176  0.00012573448212349194  1.0000
  Pd  Pd28      1.0  0.009200727278397356  0.009270622180686947  0.9999184744314776  1.0000
  Pd  Pd29      1.0  0.00334167529474922  0.004315764801495857  9.579325713093586e-05  1.0000
  Pd  Pd30      1.0  0.008207042325031114  0.004145321176125909  0.0002632561648483526  1.0000
  Pd  Pd31      1.0  0.0016526211741619945  0.005700986916247566  0.00026727117242333583  1.0000
  Pd  Pd32      1.0  0.006826030695190477  0.0057392463501304645  8.656350686984368e-05  1.0000
