data_image0
_chemical_formula_structural       CONa6Cd2Na6Cd2
_chemical_formula_sum              "C1 O1 Na12 Cd4"
_cell_length_a       7.210798511493115
_cell_length_b       5.78884744644165
_cell_length_c       113.2647933959961
_cell_angle_alpha    90.0
_cell_angle_beta     60.00000113744665
_cell_angle_gamma    90.0

_space_group_name_H-M_alt    "P 1"
_space_group_IT_number       1

loop_
  _space_group_symop_operation_xyz
  'x, y, z'

loop_
  _atom_site_type_symbol
  _atom_site_label
  _atom_site_symmetry_multiplicity
  _atom_site_fract_x
  _atom_site_fract_y
  _atom_site_fract_z
  _atom_site_occupancy
  C   C1        1.0  0.0009121941914424444  0.007500000463340767  0.9999709634031262  1.0000
  O   O1        1.0  0.0009121941914424444  0.007500000463340767  7.691004337422215e-05  1.0000
  Na  Na1       1.0  0.004226411884500783  0.007500000463340767  0.9992394843033352  1.0000
  Na  Na2       1.0  0.00908780544167992  0.007500000463340767  0.9995666241254753  1.0000
  Na  Na3       1.0  0.00908780544167992  0.007500000463340767  0.9992394844633826  1.0000
  Na  Na4       1.0  0.007374936675130218  0.0025000001544469223  0.9994575779039365  1.0000
  Na  Na5       1.0  0.0025135431179510817  0.0025000001544469223  0.9997670693680765  1.0000
  Na  Na6       1.0  0.0025135431179510817  0.0025000001544469223  0.9994575777438891  1.0000
  Cd  Cd1       1.0  0.007467340922620206  0.0025000001544469223  0.999772952172412  1.0000
  Cd  Cd2       1.0  0.004134007637010793  0.007500000463340767  0.9995607418473812  1.0000
  Na  Na7       1.0  0.004226411884500783  0.007500000463340767  0.9986028522276928  1.0000
  Na  Na8       1.0  0.00908780544167992  0.007500000463340767  0.9989299923129537  1.0000
  Na  Na9       1.0  0.00908780544167992  0.007500000463340767  0.9986028521246195  1.0000
  Na  Na10      1.0  0.007374936675130218  0.0025000001544469223  0.9988209455651734  1.0000
  Na  Na11      1.0  0.0025135431179510817  0.0025000001544469223  0.999130437555555  1.0000
  Na  Na12      1.0  0.0025135431179510817  0.0025000001544469223  0.9988209459313676  1.0000
  Cd  Cd3       1.0  0.007467340922620206  0.0025000001544469223  0.9991363203598905  1.0000
  Cd  Cd4       1.0  0.004134007637010793  0.007500000463340767  0.9989241095086181  1.0000
