data_image0
_chemical_formula_structural       HFe6Sb12
_chemical_formula_sum              "H1 Fe6 Sb12"
_cell_length_a       6.659203456180942
_cell_length_b       7.314010386309509
_cell_length_c       32.678653717041016
_cell_angle_alpha    117.89342230845637
_cell_angle_beta     111.50415274345264
_cell_angle_gamma    77.20731594821225

_space_group_name_H-M_alt    "P 1"
_space_group_IT_number       1

loop_
  _space_group_symop_operation_xyz
  'x, y, z'

loop_
  _atom_site_type_symbol
  _atom_site_label
  _atom_site_symmetry_multiplicity
  _atom_site_fract_x
  _atom_site_fract_y
  _atom_site_fract_z
  _atom_site_occupancy
  H   H1        1.0  0.007347376785777478  0.006281722445293869  0.0011774545844241782  1.0000
  Fe  Fe1       1.0  0.006625372493128509  0.006758473078278602  0.0001684814753829942  1.0000
  Fe  Fe2       1.0  6.294924870154941e-05  0.00015525685347171094  0.9982638233724597  1.0000
  Fe  Fe3       1.0  0.003396282518066706  0.00348859024742736  0.9992155495350994  1.0000
  Fe  Fe4       1.0  0.0067296160743516974  0.006821923857891279  0.998739686600554  1.0000
  Fe  Fe5       1.0  6.294924870154941e-05  0.00015525685347171094  0.9996914125137474  1.0000
  Fe  Fe6       1.0  0.003379128236658572  0.0032853666362820696  0.0005964193866309489  1.0000
  Sb  Sb1       1.0  0.006855514171163952  0.008534896874536037  0.9996422447425857  1.0000
  Sb  Sb2       1.0  0.00021108464678736  0.0019815515254671557  0.0006246364799064271  1.0000
  Sb  Sb3       1.0  0.0035221809155158985  0.0052015632640721185  0.9986905190142913  1.0000
  Sb  Sb4       1.0  0.009937050969129502  0.008442283874355054  0.9987888541066384  1.0000
  Sb  Sb5       1.0  0.0032703841206175137  0.0017756172307826013  0.9997405798279122  1.0000
  Sb  Sb6       1.0  0.006492800461762014  0.005137724501639763  0.0007007314338143524  1.0000
  Sb  Sb7       1.0  0.004235820979338959  0.009844743039717543  0.9985886404765449  1.0000
  Sb  Sb8       1.0  0.00756915431697062  0.003178076684822785  0.9995403662328303  1.0000
  Sb  Sb9       1.0  0.0008497564372329536  0.006347828482328713  0.0004780887494799051  1.0000
  Sb  Sb10      1.0  0.009223410622958974  0.0037991038100319355  0.9988907323650718  1.0000
  Sb  Sb11      1.0  0.002556743993100318  0.007132437131818162  0.9998424585368024  1.0000
  Sb  Sb12      1.0  0.006186067993599555  0.0004999920740652552  0.0007247689499806101  1.0000
