data_image0
_chemical_formula_structural       COSi4Pt12Si4Pt12
_chemical_formula_sum              "C1 O1 Si8 Pt24"
_cell_length_a       7.937285900115967
_cell_length_b       5.465290092242334
_cell_length_c       104.06956481933594
_cell_angle_alpha    88.72447833844367
_cell_angle_beta     90.0
_cell_angle_gamma    90.0

_space_group_name_H-M_alt    "P 1"
_space_group_IT_number       1

loop_
  _space_group_symop_operation_xyz
  'x, y, z'

loop_
  _atom_site_type_symbol
  _atom_site_label
  _atom_site_symmetry_multiplicity
  _atom_site_fract_x
  _atom_site_fract_y
  _atom_site_fract_z
  _atom_site_occupancy
  C   C1        1.0  0.003433897670313556  0.0015514833336518683  0.00011512861439978073  1.0000
  O   O1        1.0  0.003433897670313556  0.0015514833336518683  0.0002304363351491375  1.0000
  Si  Si1       1.0  5.334999916610281e-08  0.00793078412816144  0.9990674898494011  1.0000
  Si  Si2       1.0  5.334999916610281e-08  0.0021667080339648355  0.9993016857689688  1.0000
  Si  Si3       1.0  0.005000053129352665  0.002930783828171144  0.999340300628876  1.0000
  Si  Si4       1.0  0.005000053129352665  0.007166708163506099  0.9990288749896932  1.0000
  Pt  Pt1       1.0  0.0022588890006545238  4.874599946066381e-05  0.9991845876413964  1.0000
  Pt  Pt2       1.0  0.007741217492721091  4.874599946066381e-05  0.9991845876413964  1.0000
  Pt  Pt3       1.0  0.003155349204028429  0.005048745995838622  0.9991845876661  1.0000
  Pt  Pt4       1.0  0.006844757289347186  0.005048745995838622  0.9991845876661  1.0000
  Pt  Pt5       1.0  5.334999916610281e-08  0.0035852893600576466  0.9990663879302782  1.0000
  Pt  Pt6       1.0  5.334999916610281e-08  0.006512202972517659  0.9993027876878925  1.0000
  Pt  Pt7       1.0  0.007258888859852353  0.005048745995838622  0.9994573984699235  1.0000
  Pt  Pt8       1.0  0.0027412176335232627  0.005048745995838622  0.9994573984699235  1.0000
  Pt  Pt9       1.0  0.008155349063226259  4.874599946066381e-05  0.9994573987315891  1.0000
  Pt  Pt10      1.0  0.0018447573128142142  4.874599946066381e-05  0.9994573987315891  1.0000
  Pt  Pt11      1.0  0.005000053129352665  0.00858528931914988  0.9993391987588489  1.0000
  Pt  Pt12      1.0  0.005000053129352665  0.0015122026725273643  0.9990299768597203  1.0000
  Si  Si5       1.0  5.334999916610281e-08  0.00793078412816144  0.9996131114570481  1.0000
  Si  Si6       1.0  0.009999946682911109  0.0022330583875912143  0.9998472575901006  1.0000
  Si  Si7       1.0  0.005000140426698916  0.002983570870558311  0.9999068522524021  1.0000
  Si  Si8       1.0  0.005000053129352665  0.007166708163506099  0.9995744965973402  1.0000
  Pt  Pt13      1.0  0.0022903195653590914  0.009951254222336137  0.9997257181636786  1.0000
  Pt  Pt14      1.0  0.007709729433796547  0.009951100818207713  0.9997257389615952  1.0000
  Pt  Pt15      1.0  0.0032032787325041103  0.004980790353232791  0.9997288013128374  1.0000
  Pt  Pt16      1.0  0.006796955890847454  0.004980681606750641  0.9997288060218712  1.0000
  Pt  Pt17      1.0  5.334999916610281e-08  0.0035852893600576466  0.999612009251556  1.0000
  Pt  Pt18      1.0  1.3025000083007282e-07  0.006540886135552502  0.9998503706127292  1.0000
  Pt  Pt19      1.0  0.007267123909515344  0.005130463011458364  0.9999939886836071  1.0000
  Pt  Pt20      1.0  0.002732958647491138  0.005130382218617393  0.9999940025237785  1.0000
  Pt  Pt21      1.0  0.008132345743148604  0.0002607056076037809  0.9999904489420417  1.0000
  Pt  Pt22      1.0  0.0018676546792579104  0.0002605239941606289  0.9999904588909041  1.0000
  Pt  Pt23      1.0  0.004999983666948121  0.008752461638550047  0.9999030127091446  1.0000
  Pt  Pt24      1.0  0.005000053129352665  0.0015122026725273643  0.9995755981809981  1.0000
