data_image0
_chemical_formula_structural       COAg12Sn4Ag12Sn4
_chemical_formula_sum              "C1 O1 Ag24 Sn8"
_cell_length_a       4.954258918762207
_cell_length_b       13.444295874496733
_cell_length_c       106.98318481445312
_cell_angle_alpha    113.13992578207346
_cell_angle_beta     90.0
_cell_angle_gamma    90.0

_space_group_name_H-M_alt    "P 1"
_space_group_IT_number       1

loop_
  _space_group_symop_operation_xyz
  'x, y, z'

loop_
  _atom_site_type_symbol
  _atom_site_label
  _atom_site_symmetry_multiplicity
  _atom_site_fract_x
  _atom_site_fract_y
  _atom_site_fract_z
  _atom_site_occupancy
  C   C1        1.0  0.004999998300622512  0.004977835748811462  0.0002102946920742461  1.0000
  O   O1        1.0  0.004999998300622512  0.004977835748811462  0.0003224615221687371  1.0000
  Ag  Ag1       1.0  0.005000000180464866  0.0055959302409674515  0.9995965812102883  1.0000
  Ag  Ag2       1.0  0.005000000180464866  0.0005959302304207725  0.9993496586522705  1.0000
  Ag  Ag3       1.0  2.499999930481975e-10  0.0030959302168607557  0.9996453946785219  1.0000
  Ag  Ag4       1.0  2.499999930481975e-10  0.008095929662406737  0.9993984719376443  1.0000
  Ag  Ag5       1.0  2.499999930481975e-10  0.004343453265851811  0.9994552538528766  1.0000
  Ag  Ag6       1.0  2.499999930481975e-10  0.009343453012731498  0.9997021763978733  1.0000
  Ag  Ag7       1.0  0.005000000180464866  0.004348406890642691  0.9992928767500593  1.0000
  Ag  Ag8       1.0  0.005000000180464866  0.009348406938856083  0.9995397993099371  1.0000
  Ag  Ag9       1.0  2.499999930481975e-10  0.001848407017202847  0.9993320372127187  1.0000
  Ag  Ag10      1.0  2.499999930481975e-10  0.006848406914749387  0.999578959765156  1.0000
  Ag  Ag11      1.0  0.005000000180464866  0.0018434533924119678  0.9996630161162136  1.0000
  Ag  Ag12      1.0  0.005000000180464866  0.006843452988624802  0.9994160933827765  1.0000
  Sn  Sn1       1.0  2.499999930481975e-10  0.0055959302409674515  0.9992725208274215  1.0000
  Sn  Sn2       1.0  2.499999930481975e-10  0.0005959302304207725  0.9995194435403967  1.0000
  Sn  Sn3       1.0  0.005000000180464866  0.0030959302168607557  0.9994756097903956  1.0000
  Sn  Sn4       1.0  0.005000000180464866  0.008095929662406737  0.9997225323205111  1.0000
  Ag  Ag13      1.0  0.004999997924654042  0.005632676078396673  7.920379468315208e-05  1.0000
  Ag  Ag14      1.0  0.005000000180464866  0.0005959302304207725  0.9998435036446934  1.0000
  Ag  Ag15      1.0  0.009999995097371142  0.002998549709801659  0.00012689665232919767  1.0000
  Ag  Ag16      1.0  2.499999930481975e-10  0.008095929662406737  0.9998923172086374  1.0000
  Ag  Ag17      1.0  7.499999567351254e-10  0.004357959470452634  0.9999562752690243  1.0000
  Ag  Ag18      1.0  5.349999972242549e-09  0.009182400392287307  0.00018518914132691945  1.0000
  Ag  Ag19      1.0  0.005000000180464866  0.004348406890642691  0.9997867220210523  1.0000
  Ag  Ag20      1.0  0.005000002060307219  0.009404069301005314  3.9312854719346087e-05  1.0000
  Ag  Ag21      1.0  2.499999930481975e-10  0.001848407017202847  0.9998258822051416  1.0000
  Ag  Ag22      1.0  0.009999999608992791  0.006815225855060666  7.84680080607923e-05  1.0000
  Ag  Ag23      1.0  0.004999994164969335  0.0018601183516816792  0.00014559777618944109  1.0000
  Ag  Ag24      1.0  0.005000000180464866  0.006843452988624802  0.9999099386537695  1.0000
  Sn  Sn5       1.0  2.499999930481975e-10  0.0055959302409674515  0.9997663660984144  1.0000
  Sn  Sn6       1.0  0.009999998105118908  0.0006413080355217764  3.1670684054867404e-05  1.0000
  Sn  Sn7       1.0  0.004999999052559454  0.003221845519197686  0.9999892572435585  1.0000
  Sn  Sn8       1.0  0.005000004316118044  0.008106793947838354  0.000203973699517738  1.0000
