data_image0
_chemical_formula_structural       COV30Si18
_chemical_formula_sum              "C1 O1 V30 Si18"
_cell_length_a       12.368887901306152
_cell_length_b       8.635967640561896
_cell_length_c       104.54386901855469
_cell_angle_alpha    91.47116873505286
_cell_angle_beta     90.0
_cell_angle_gamma    44.26441649401035

_space_group_name_H-M_alt    "P 1"
_space_group_IT_number       1

loop_
  _space_group_symop_operation_xyz
  'x, y, z'

loop_
  _atom_site_type_symbol
  _atom_site_label
  _atom_site_symmetry_multiplicity
  _atom_site_fract_x
  _atom_site_fract_y
  _atom_site_fract_z
  _atom_site_occupancy
  C   C1        1.0  0.0007045070626015087  0.0027229108802654897  0.00011158539197649557  1.0000
  O   O1        1.0  0.0007045070626015087  0.0027229108802654897  0.00022636940395830303  1.0000
  V   V1        1.0  0.008444344487208133  0.0031446177899785537  0.9999065793870126  1.0000
  V   V2        1.0  0.0016919253541148231  0.006649280358449593  0.99964672709087  1.0000
  V   V3        1.0  0.005025258533347636  0.009982613807227286  0.9993713730777519  1.0000
  V   V4        1.0  0.007473101051841052  0.007534771173379644  0.9995735803340386  1.0000
  V   V5        1.0  0.0008064341582627254  0.0008681048942761868  0.9992982261533064  1.0000
  V   V6        1.0  0.004165436394920684  0.004133081469691937  0.9998376693644162  1.0000
  V   V7        1.0  0.0016885141923378242  0.009060245940620066  0.9998409329666839  1.0000
  V   V8        1.0  0.004990486768924071  0.0024999999319702875  0.9995764524198125  1.0000
  V   V9        1.0  0.008323820025463374  0.005833333226134999  0.9993010984063666  1.0000
  V   V10       1.0  0.008435975295303462  0.006551123378844535  0.9998623015253624  1.0000
  V   V11       1.0  0.0016745391635390675  1.738579986247163e-05  0.9995750162933542  1.0000
  V   V12       1.0  0.005007872436989166  0.003350719060205593  0.9992996622798366  1.0000
  V   V13       1.0  0.0050252586487018625  0.007534771173379644  0.9995735803340386  1.0000
  V   V14       1.0  0.008358591788253591  0.0008681048942761868  0.9992982261533064  1.0000
  V   V15       1.0  0.0017350983378478216  0.004133422545931287  0.999837638730077  1.0000
  V   V16       1.0  0.005046000453089513  0.006551433841713354  0.999862295342119  1.0000
  V   V17       1.0  0.00834120550091307  1.738579986247163e-05  0.9995750162933542  1.0000
  V   V18       1.0  0.0016745392683021653  0.003350719060205593  0.9992996622798366  1.0000
  V   V19       1.0  0.009285129545464703  0.009059541523871888  0.9998409491470811  1.0000
  V   V20       1.0  0.0025426440646025665  0.0024999999319702875  0.9995764524198125  1.0000
  V   V21       1.0  0.0058759776223241845  0.005833333226134999  0.9993010984063666  1.0000
  V   V22       1.0  0.009992127659731204  0.003347945921751839  0.999714285605147  1.0000
  V   V23       1.0  0.0033412058672133023  0.006684052199757321  0.9994373393702026  1.0000
  V   V24       1.0  0.006205189522440319  0.00023079209383100236  0.9999850700321924  1.0000
  V   V25       1.0  0.005002038792934502  2.905829972728422e-05  0.9998065127701974  1.0000
  V   V26       1.0  0.008323820140817602  0.0033854905922873564  0.9995033053775834  1.0000
  V   V27       1.0  0.0016571535128070954  0.00671882404106505  0.9992279516495354  1.0000
  V   V28       1.0  0.0066931694208445655  0.0033476264913300364  0.9997143179958132  1.0000
  V   V29       1.0  7.8726985263012e-06  0.006684052199757321  0.9994373393702026  1.0000
  V   V30       1.0  0.003597118918334085  0.00023111699368706038  0.9999850456350863  1.0000
  Si  Si1       1.0  0.006439791593298506  0.007153600695413077  0.9999930825907142  1.0000
  Si  Si2       1.0  0.009523590059506707  0.0009859507549091428  0.9997015223253698  1.0000
  Si  Si3       1.0  0.002856923207620377  0.004319284049073854  0.9994261683119239  1.0000
  Si  Si4       1.0  0.002893311378962998  0.0002960823926250686  0.9997575361930471  1.0000
  Si  Si5       1.0  0.006190256460823562  0.003699769927965886  0.9994773440886183  1.0000
  Si  Si6       1.0  0.009523589949282341  0.007033102758291649  0.9992019900741886  1.0000
  Si  Si7       1.0  0.003825488122518266  0.006335001641222994  0.9996726883811466  1.0000
  Si  Si8       1.0  0.007158822213341675  0.009668334471548757  0.999397334651787  1.0000
  Si  Si9       1.0  0.0007573919694197028  0.002617141066629102  0.9999457963986806  1.0000
  Si  Si10      1.0  0.006844374060121133  0.00029562868082798224  0.9997575255384238  1.0000
  Si  Si11      1.0  0.00014310422611631823  0.003699769927965886  0.9994773440886183  1.0000
  Si  Si12      1.0  0.0034764375639839383  0.007033102758291649  0.9992019900741886  1.0000
  Si  Si13      1.0  0.007111010819290302  0.005812107955900201  0.999727707421363  1.0000
  Si  Si14      1.0  0.0004921549023239272  0.009048820659666754  0.9994485101440671  1.0000
  Si  Si15      1.0  0.0034271315810289315  0.003179016086320611  6.742132684952808e-06  1.0000
  Si  Si16      1.0  0.00987264050781667  0.006335001641222994  0.9996726883811466  1.0000
  Si  Si17      1.0  0.0032059741890321266  0.009668334471548757  0.999397334651787  1.0000
  Si  Si18      1.0  0.006659498197909221  0.002616034656126478  0.9999458465050619  1.0000
