data_image0
_chemical_formula_structural       COCo6Mo2Co6Mo2
_chemical_formula_sum              "C1 O1 Co12 Mo4"
_cell_length_a       5.1276535987854
_cell_length_b       5.12765387430422
_cell_length_c       98.70773315429688
_cell_angle_alpha    90.0
_cell_angle_beta     90.0
_cell_angle_gamma    119.99999822256156

_space_group_name_H-M_alt    "P 1"
_space_group_IT_number       1

loop_
  _space_group_symop_operation_xyz
  'x, y, z'

loop_
  _atom_site_type_symbol
  _atom_site_label
  _atom_site_symmetry_multiplicity
  _atom_site_fract_x
  _atom_site_fract_y
  _atom_site_fract_z
  _atom_site_occupancy
  C   C1        1.0  0.008782956878654822  0.0033767062443666113  0.00017199272655671512  1.0000
  O   O1        1.0  0.008782956878654822  0.0033767062443666113  0.00029356339108907063  1.0000
  Co  Co1       1.0  0.007979543951236531  0.006769561335511273  0.999379552182091  1.0000
  Co  Co2       1.0  0.0012170430848490346  0.008388310830828352  0.9995872919109441  1.0000
  Co  Co3       1.0  0.006360794182169351  0.008388310830828352  0.9995872919109441  1.0000
  Co  Co4       1.0  0.0028357931795179024  0.0016258105261394613  0.999379552182091  1.0000
  Co  Co5       1.0  0.007979543913583347  0.0016258105261394613  0.999379552182091  1.0000
  Co  Co6       1.0  0.0012170433790927874  0.0032445602311818237  0.9995872919109441  1.0000
  Mo  Mo1       1.0  0.002931626901855652  0.00667372736752127  0.999379552182091  1.0000
  Mo  Mo2       1.0  0.006264960641459037  0.0033403939894465435  0.9995872919109441  1.0000
  Co  Co7       1.0  0.007993618787304502  0.006797572244286292  0.9997972761494981  1.0000
  Co  Co8       1.0  0.0013012381871863802  0.008303936671742847  0.0  1.0000
  Co  Co9       1.0  0.006192364038924695  0.008304253776370488  0.9999999734306089  1.0000
  Co  Co10      1.0  0.002808172991381884  0.0016119423369495656  0.9997972477685576  1.0000
  Co  Co11      1.0  0.007993669517181518  0.0016116887790826218  0.9997972809802965  1.0000
  Co  Co12      1.0  0.0013010570195581138  0.0034130667361017305  0.9999999764498578  1.0000
  Mo  Mo3       1.0  0.0029315101294845815  0.006673604887956096  0.9997980907428763  1.0000
  Mo  Mo4       1.0  0.006264855880470034  0.003340345752631492  0.9999930629735149  1.0000
