data_image0
_chemical_formula_structural       COSb8Si4V16
_chemical_formula_sum              "C1 O1 Sb8 Si4 V16"
_cell_length_a       4.713490009307861
_cell_length_b       7.394186164962647
_cell_length_c       27.948715209960938
_cell_angle_alpha    90.0
_cell_angle_beta     90.0
_cell_angle_gamma    108.58610574224576

_space_group_name_H-M_alt    "P 1"
_space_group_IT_number       1

loop_
  _space_group_symop_operation_xyz
  'x, y, z'

loop_
  _atom_site_type_symbol
  _atom_site_label
  _atom_site_symmetry_multiplicity
  _atom_site_fract_x
  _atom_site_fract_y
  _atom_site_fract_z
  _atom_site_occupancy
  C   C1        1.0  0.007499637407752367  0.000604817433263834  0.00022685141774042705  1.0000
  O   O1        1.0  0.007499637407752367  0.000604817433263834  0.0006562090617760955  1.0000
  Sb  Sb1       1.0  0.003886800338497302  0.00836846143588341  0.9990668853120989  1.0000
  Sb  Sb2       1.0  0.008909808389286527  0.008423709742794763  0.9965492498541784  1.0000
  Sb  Sb3       1.0  0.002500000043852437  0.0056040932297545445  0.9958421900416845  1.0000
  Sb  Sb4       1.0  0.007500000132766418  0.0056040932297545445  0.9983498356644662  1.0000
  Sb  Sb5       1.0  0.007501777635116487  0.005605605979116872  0.0  1.0000
  Sb  Sb6       1.0  0.002500000043852437  0.0056040932297545445  0.9972563099332526  1.0000
  Sb  Sb7       1.0  0.006090191743362492  0.002784476450946694  0.9965492498541784  1.0000
  Sb  Sb8       1.0  0.001114287560297951  0.002841590978171165  0.999066369212381  1.0000
  Si  Si1       1.0  0.007500000013866624  0.0006040931500242551  0.9952954269094973  1.0000
  Si  Si2       1.0  0.002499999974349299  0.0006040931500242551  0.9978030727988595  1.0000
  Si  Si3       1.0  0.002499999974349299  0.0006040931500242551  0.9952954269094973  1.0000
  Si  Si4       1.0  0.007500000013866624  0.0006040931500242551  0.9978030727988595  1.0000
  V   V1        1.0  0.000604093203408203  0.001812279450072765  0.9960225618280638  1.0000
  V   V2        1.0  0.005604093242925527  0.001812279450072765  0.998530207717426  1.0000
  V   V3        1.0  0.008550164719471811  0.007704422403165331  0.9955983971708591  1.0000
  V   V4        1.0  0.003550164581161174  0.007704422403165331  0.9981060430602212  1.0000
  V   V5        1.0  0.004162711176136533  0.008960793703764937  0.9999989038212603  1.0000
  V   V6        1.0  0.008550164719471811  0.007704422403165331  0.9975001025374977  1.0000
  V   V7        1.0  0.006449835413177209  0.0035037637905761263  0.9955983971708591  1.0000
  V   V8        1.0  0.0014498353736598839  0.0035037637905761263  0.9981060430602212  1.0000
  V   V9        1.0  0.000604093203408203  0.001812279450072765  0.9970759381468735  1.0000
  V   V10       1.0  0.005634404971597075  0.0018696569543692708  0.9996070876332543  1.0000
  V   V11       1.0  0.009395906690397766  0.009395906345017243  0.998530207717426  1.0000
  V   V12       1.0  0.00439590655208713  0.009395906345017243  0.9960225618280638  1.0000
  V   V13       1.0  0.0008389923574012662  0.0022485368854006566  0.9999990157850421  1.0000
  V   V14       1.0  0.006449835413177209  0.0035037637905761263  0.9975001025374977  1.0000
  V   V15       1.0  0.00936486975297591  0.009339978204502792  0.9996071654747407  1.0000
  V   V16       1.0  0.00439590655208713  0.009395906345017243  0.9970759381468735  1.0000
