data_image0
_chemical_formula_structural       COV2Ir2V2Ir2V2Ir2V2Ir2V2Ir2V2Ir2
_chemical_formula_sum              "C1 O1 V12 Ir12"
_cell_length_a       7.882270893821215
_cell_length_b       5.509035110473633
_cell_length_c       100.29969024658203
_cell_angle_alpha    90.0
_cell_angle_beta     69.54587174449345
_cell_angle_gamma    90.0

_space_group_name_H-M_alt    "P 1"
_space_group_IT_number       1

loop_
  _space_group_symop_operation_xyz
  'x, y, z'

loop_
  _atom_site_type_symbol
  _atom_site_label
  _atom_site_symmetry_multiplicity
  _atom_site_fract_x
  _atom_site_fract_y
  _atom_site_fract_z
  _atom_site_occupancy
  C   C1        1.0  0.006680429775019191  0.0049999998241841885  0.9999096790083196  1.0000
  O   O1        1.0  0.006680429775019191  0.0049999998241841885  2.932069703469312e-05  1.0000
  V   V1        1.0  0.006250000100883768  0.003749999783611309  0.9996910430912901  1.0000
  V   V2        1.0  0.001249999944513928  0.003749999783611309  0.9998283568613368  1.0000
  Ir  Ir1       1.0  0.003749999959646493  0.0012499999560460471  0.9996223857249951  1.0000
  Ir  Ir2       1.0  0.008750000242121043  0.0012499999560460471  0.9997596998633197  1.0000
  V   V3        1.0  0.006250000100883768  0.003749999783611309  0.9994164139909247  1.0000
  V   V4        1.0  0.001249999944513928  0.003749999783611309  0.9995537283552368  1.0000
  Ir  Ir3       1.0  0.003749999959646493  0.0012499999560460471  0.9993477569217625  1.0000
  Ir  Ir4       1.0  0.008750000242121043  0.0012499999560460471  0.9994850713572199  1.0000
  V   V5        1.0  0.006250000100883768  0.003749999783611309  0.9991417854848249  1.0000
  V   V6        1.0  0.001249999944513928  0.003749999783611309  0.999279099849137  1.0000
  Ir  Ir5       1.0  0.003749999959646493  0.0012499999560460471  0.9990731281185299  1.0000
  Ir  Ir6       1.0  0.008750000242121043  0.0012499999560460471  0.9992104425539873  1.0000
  V   V7        1.0  0.006250000100883768  0.008749999945902828  0.9996910430912901  1.0000
  V   V8        1.0  0.001249999944513928  0.008749999945902828  0.9998283568613368  1.0000
  Ir  Ir7       1.0  0.003749999959646493  0.006249999864757068  0.9996223857249951  1.0000
  Ir  Ir8       1.0  0.008750000242121043  0.006249999864757068  0.9997596998633197  1.0000
  V   V9        1.0  0.006250000100883768  0.008749999945902828  0.9994164139909247  1.0000
  V   V10       1.0  0.001249999944513928  0.008749999945902828  0.9995537283552368  1.0000
  Ir  Ir9       1.0  0.003749999959646493  0.006249999864757068  0.9993477569217625  1.0000
  Ir  Ir10      1.0  0.008750000242121043  0.006249999864757068  0.9994850713572199  1.0000
  V   V11       1.0  0.006250000100883768  0.008749999945902828  0.9991417854848249  1.0000
  V   V12       1.0  0.001249999944513928  0.008749999945902828  0.999279099849137  1.0000
  Ir  Ir11      1.0  0.003749999959646493  0.006249999864757068  0.9990731281185299  1.0000
  Ir  Ir12      1.0  0.008750000242121043  0.006249999864757068  0.9992104425539873  1.0000
