data_image0
_chemical_formula_structural       HCu2Sn2Cu2Sn2Cu2Sn2Cu2Sn2
_chemical_formula_sum              "H1 Cu8 Sn8"
_cell_length_a       8.456920172484265
_cell_length_b       5.161495685577393
_cell_length_c       103.82768249511719
_cell_angle_alpha    90.0
_cell_angle_beta     119.99999803491431
_cell_angle_gamma    90.0

_space_group_name_H-M_alt    "P 1"
_space_group_IT_number       1

loop_
  _space_group_symop_operation_xyz
  'x, y, z'

loop_
  _atom_site_type_symbol
  _atom_site_label
  _atom_site_symmetry_multiplicity
  _atom_site_fract_x
  _atom_site_fract_y
  _atom_site_fract_z
  _atom_site_occupancy
  H   H1        1.0  0.006441708678812408  0.00251183583059855  0.00023806470670082534  1.0000
  Cu  Cu1       1.0  0.0008333332934892484  1.1984900018361082e-05  0.9996440821480002  1.0000
  Cu  Cu2       1.0  0.0008333332934892484  0.005011984784595343  0.9996440821480002  1.0000
  Sn  Sn1       1.0  0.0041666665310272286  0.0025119848712048965  0.9997798346310861  1.0000
  Sn  Sn2       1.0  0.002500000071210705  0.007511985058858929  0.9995083296196098  1.0000
  Cu  Cu3       1.0  0.0008767353280759379  0.009988015056620477  5.843668556844051e-05  1.0000
  Cu  Cu4       1.0  0.0008768685938239371  0.005035871699402307  5.8461057316702445e-05  1.0000
  Sn  Sn3       1.0  0.004024132201119475  0.0025116209306443632  0.00016388578628031398  1.0000
  Sn  Sn4       1.0  0.0026029458269485137  0.0075118905100965494  0.9999323441587048  1.0000
  Cu  Cu5       1.0  0.005833333245167698  1.1984900018361082e-05  0.9996440821001065  1.0000
  Cu  Cu6       1.0  0.005833333245167698  0.005011984784595343  0.9996440821001065  1.0000
  Sn  Sn5       1.0  0.009166666164800746  0.0025119848712048965  0.9997798345702454  1.0000
  Sn  Sn6       1.0  0.007499999959308169  0.007511985058858929  0.9995083295691267  1.0000
  Cu  Cu7       1.0  0.0058767351525924145  0.009988015056620477  5.8436632495921944e-05  1.0000
  Cu  Cu8       1.0  0.005876868418340414  0.005035871699402307  5.8461004244183857e-05  1.0000
  Sn  Sn7       1.0  0.009024131834892991  0.0025116209306443632  0.000163885725439646  1.0000
  Sn  Sn8       1.0  0.007602945715045977  0.0075118905100965494  0.9999323441082217  1.0000
