data_image0
_chemical_formula_structural       Al20Cu20H
_chemical_formula_sum              "Al20 Cu20 H1"
_cell_length_a       6.4479719748254
_cell_length_b       11.80957324864091
_cell_length_c       101.45413208007812
_cell_angle_alpha    95.6663117940809
_cell_angle_beta     94.11807224820343
_cell_angle_gamma    102.09543754001218

_space_group_name_H-M_alt    "P 1"
_space_group_IT_number       1

loop_
  _space_group_symop_operation_xyz
  'x, y, z'

loop_
  _atom_site_type_symbol
  _atom_site_label
  _atom_site_symmetry_multiplicity
  _atom_site_fract_x
  _atom_site_fract_y
  _atom_site_fract_z
  _atom_site_occupancy
  Al  Al1       1.0  0.00484272450982058  0.005110101923369567  0.9997241164766048  1.0000
  Al  Al2       1.0  0.008592724754161124  0.0001101018969773906  0.999530345950886  1.0000
  Al  Al3       1.0  0.005010289350347754  0.00686514332605167  0.9995378195618446  1.0000
  Al  Al4       1.0  0.0012602893274126466  0.0018651432286036335  0.9997315899461497  1.0000
  Al  Al5       1.0  0.008425159575989282  0.008355060780548894  0.9997166430083958  1.0000
  Al  Al6       1.0  0.002175159263824329  0.0033550605206874645  0.9995228724333911  1.0000
  Al  Al7       1.0  0.00923399948877527  0.006413787410690824  0.999434289128067  1.0000
  Al  Al8       1.0  0.005483999357232374  0.001413787313242788  0.9996280598056282  1.0000
  Al  Al9       1.0  0.0017014493217134571  0.00880641669590974  0.9994326321917698  1.0000
  Al  Al10      1.0  0.007951449299169275  0.0038064164360483103  0.9996264029120245  1.0000
  Al  Al11      1.0  0.007660991774744727  0.0039022543056959963  8.930732975511592e-05  1.0000
  Al  Al12      1.0  0.0011317384021090218  0.00032036289525183277  0.9999411633383062  1.0000
  Al  Al13      1.0  0.00746954545015855  0.006828152051574802  0.9999268694251014  1.0000
  Al  Al14      1.0  0.004227550491039094  0.0021327522641206623  0.00010450855433880032  1.0000
  Al  Al15      1.0  0.0011291233933845735  0.008231168595808622  4.1099786415749064e-05  1.0000
  Al  Al16      1.0  0.0046607735521258  0.0033122795335632864  0.9998748282172981  1.0000
  Al  Al17      1.0  0.00173399928604073  0.006413787410690824  0.9998218303329538  1.0000
  Al  Al18      1.0  0.007969863810278675  0.0013953191238678358  2.7297897335584726e-05  1.0000
  Al  Al19      1.0  0.004201449365156573  0.00880641669590974  0.9998201731480912  1.0000
  Al  Al20      1.0  0.0013418971890731392  0.003499192987337888  2.9212123119513812e-05  1.0000
  Cu  Cu1       1.0  0.0017177242467347898  0.007610101728473495  0.9996272312583677  1.0000
  Cu  Cu2       1.0  0.0054677243026635455  0.0026101019558522455  0.9994334604409539  1.0000
  Cu  Cu3       1.0  0.005199382033163534  0.008986649437160934  0.9995806132402567  1.0000
  Cu  Cu4       1.0  0.008949382458749697  0.00398664950212629  0.9993868424226635  1.0000
  Cu  Cu5       1.0  0.008236066778888893  0.006233554019786057  0.9996738493219955  1.0000
  Cu  Cu6       1.0  0.0019860664838479256  0.0012335541659581112  0.9994800787517355  1.0000
  Cu  Cu7       1.0  0.0019517243406525144  0.009840309174813149  0.9996714377841899  1.0000
  Cu  Cu8       1.0  0.005701724621428292  0.004840309239778507  0.9994776669659358  1.0000
  Cu  Cu9       1.0  0.0014837241375541758  0.005379894606960627  0.9995830247362092  1.0000
  Cu  Cu10      1.0  0.00523372449836659  0.00037989450951259144  0.9993892542102053  1.0000
  Cu  Cu11      1.0  0.004390252867119317  0.007551229471986522  1.6136169089791234e-05  1.0000
  Cu  Cu12      1.0  0.007967724708132623  0.0026101019558522455  0.9998210016926795  1.0000
  Cu  Cu13      1.0  0.00774096004951261  0.009019907152550717  0.9999741297545215  1.0000
  Cu  Cu14      1.0  0.0014493820569008778  0.00398664950212629  0.9997743836266416  1.0000
  Cu  Cu15      1.0  0.0007660005898055862  0.00591759175603128  4.93041375621304e-05  1.0000
  Cu  Cu16      1.0  0.004509259141838215  0.0011773122755836696  0.9998579743377368  1.0000
  Cu  Cu17      1.0  0.004543162412146102  0.00988989788173436  5.334864831916932e-05  1.0000
  Cu  Cu18      1.0  0.008087685852672184  0.004807453010297165  0.9998660599982535  1.0000
  Cu  Cu19      1.0  0.004144911832126644  0.005337139605979391  0.9999702556681412  1.0000
  Cu  Cu20      1.0  0.0077337240349733575  0.00037989450951259144  0.9997767954579653  1.0000
  H   H1        1.0  0.00580722856110596  0.00608264599119049  9.641247189951516e-05  1.0000
