data_image0
_chemical_formula_structural       COCa4Sb8Ca4Sb8
_chemical_formula_sum              "C1 O1 Ca8 Sb16"
_cell_length_a       9.0007350289507
_cell_length_b       6.443201515225973
_cell_length_c       108.65921020507812
_cell_angle_alpha    94.4608539475185
_cell_angle_beta     101.41171248966491
_cell_angle_gamma    78.58828780258385

_space_group_name_H-M_alt    "P 1"
_space_group_IT_number       1

loop_
  _space_group_symop_operation_xyz
  'x, y, z'

loop_
  _atom_site_type_symbol
  _atom_site_label
  _atom_site_symmetry_multiplicity
  _atom_site_fract_x
  _atom_site_fract_y
  _atom_site_fract_z
  _atom_site_occupancy
  C   C1        1.0  0.007263025329252947  0.00590212262143433  0.0001462577477916531  1.0000
  O   O1        1.0  0.007263025329252947  0.00590212262143433  0.00025669499739108234  1.0000
  Ca  Ca1       1.0  0.0070798403152503644  0.0004906794105277847  0.9996890687619552  1.0000
  Ca  Ca2       1.0  0.006889914430377742  0.005791777270830404  0.9999835091466678  1.0000
  Ca  Ca3       1.0  0.002979594292202576  0.00950932095533167  5.73439008087459e-05  1.0000
  Ca  Ca4       1.0  0.002944220192677023  0.004235729550291067  0.9997634837487102  1.0000
  Sb  Sb1       1.0  0.009833729758201439  0.007259609533292544  0.9998806623040116  1.0000
  Sb  Sb2       1.0  0.009572426887355823  0.0021819847335824605  0.00013445814084131426  1.0000
  Sb  Sb3       1.0  0.00019033038708824332  0.0024667993175484593  0.9998683766920444  1.0000
  Sb  Sb4       1.0  0.0001662695901251719  0.007696511972749494  0.0001531706224861201  1.0000
  Sb  Sb5       1.0  0.004008915044988376  0.004239029518042789  7.884521546609285e-05  1.0000
  Sb  Sb6       1.0  0.003794870475429823  0.009012869377163004  0.99977669853144  1.0000
  Sb  Sb7       1.0  0.006229190032497565  0.005713539322687086  0.9996758535282134  1.0000
  Sb  Sb8       1.0  0.006276644319318722  0.0009493881363918296  0.9999943184229673  1.0000
  Ca  Ca5       1.0  0.0070798403152503644  0.0004906794105277847  0.9990960953284639  1.0000
  Ca  Ca6       1.0  0.0070798403152503644  0.005490679497517371  0.9993925818207066  1.0000
  Ca  Ca7       1.0  0.002944220192677023  0.009235729782263299  0.9994669973566769  1.0000
  Ca  Ca8       1.0  0.002944220192677023  0.004235729550291067  0.999170510315219  1.0000
  Sb  Sb9       1.0  0.009833729758201439  0.007259609533292544  0.9992876891447938  1.0000
  Sb  Sb10      1.0  0.009833729758201439  0.0022596095912856013  0.9995841758124376  1.0000
  Sb  Sb11      1.0  0.00019033038708824332  0.0024667993175484593  0.9992754032585532  1.0000
  Sb  Sb12      1.0  0.00019033038708824332  0.007466799259555401  0.9995718897501272  1.0000
  Sb  Sb13      1.0  0.003794870475429823  0.004012869145190774  0.9994802120385287  1.0000
  Sb  Sb14      1.0  0.003794870475429823  0.009012869377163004  0.9991837253722221  1.0000
  Sb  Sb15      1.0  0.006229190032497565  0.005713539322687086  0.9990828803689955  1.0000
  Sb  Sb16      1.0  0.006229190032497565  0.0007135395256627887  0.999379367037308  1.0000
