data_image0
_chemical_formula_structural       Co6W2Co6W2Co6W2Co6W2H
_chemical_formula_sum              "Co24 W8 H1"
_cell_length_a       5.127372108840037
_cell_length_b       8.2128324508667
_cell_length_c       34.108394622802734
_cell_angle_alpha    90.0
_cell_angle_beta     59.999998993408916
_cell_angle_gamma    90.0

_space_group_name_H-M_alt    "P 1"
_space_group_IT_number       1

loop_
  _space_group_symop_operation_xyz
  'x, y, z'

loop_
  _atom_site_type_symbol
  _atom_site_label
  _atom_site_symmetry_multiplicity
  _atom_site_fract_x
  _atom_site_fract_y
  _atom_site_fract_z
  _atom_site_occupancy
  Co  Co1       1.0  0.006739550220644471  0.0012499999863921844  0.9988595373972773  1.0000
  Co  Co2       1.0  0.008380927034837707  0.003750000072575016  0.9983701991043774  1.0000
  Co  Co3       1.0  0.008305790079718513  0.003750000072575016  0.9991229568032123  1.0000
  Co  Co4       1.0  0.0017154819690569944  0.0012499999863921844  0.9996011949999561  1.0000
  Co  Co5       1.0  0.0016243659001740286  0.0012499999863921844  0.9988595519579266  1.0000
  Co  Co6       1.0  0.003238146173619289  0.003750000072575016  0.9983701991940189  1.0000
  W   W1        1.0  0.006909287287728895  0.0012499999863921844  0.9995427750843725  1.0000
  W   W2        1.0  0.0032980147081682377  0.003750000072575016  0.9991253185767645  1.0000
  Co  Co7       1.0  0.0067618540528964705  0.0012499999863921844  0.9973537178234653  1.0000
  Co  Co8       1.0  0.008380927034837707  0.003750000072575016  0.9968669410635543  1.0000
  Co  Co9       1.0  0.008380927034837707  0.003750000072575016  0.9975971065525693  1.0000
  Co  Co10      1.0  0.0016190730868096445  0.0012499999863921844  0.9981268109096738  1.0000
  Co  Co11      1.0  0.0016190730868096445  0.0012499999863921844  0.997353717920989  1.0000
  Co  Co12      1.0  0.003238146173619289  0.003750000072575016  0.9968669411531959  1.0000
  W   W3        1.0  0.0066666670973262575  0.0012499999863921844  0.9981125015907145  1.0000
  W   W4        1.0  0.0033333333389263154  0.003750000072575016  0.9976114154110053  1.0000
  Co  Co13      1.0  0.006739550220644471  0.006250000272156311  0.9988595373972773  1.0000
  Co  Co14      1.0  0.008380927034837707  0.008750000471737605  0.9983701991043774  1.0000
  Co  Co15      1.0  0.008305790079718513  0.008750000471737605  0.9991229568032123  1.0000
  Co  Co16      1.0  0.0017154819690569944  0.006250000272156311  0.9996011949999561  1.0000
  Co  Co17      1.0  0.0016243659001740286  0.006250000272156311  0.9988595519579266  1.0000
  Co  Co18      1.0  0.003238146173619289  0.008750000471737605  0.9983701991940189  1.0000
  W   W5        1.0  0.006909287287728895  0.006250000272156311  0.9995427750843725  1.0000
  W   W6        1.0  0.0032980147081682377  0.008750000471737605  0.9991253185767645  1.0000
  Co  Co19      1.0  0.0067618540528964705  0.006250000272156311  0.9973537178234653  1.0000
  Co  Co20      1.0  0.008380927034837707  0.008750000471737605  0.9968669410635543  1.0000
  Co  Co21      1.0  0.008380927034837707  0.008750000471737605  0.9975971065525693  1.0000
  Co  Co22      1.0  0.0016190730868096445  0.006250000272156311  0.9981268109096738  1.0000
  Co  Co23      1.0  0.0016190730868096445  0.006250000272156311  0.997353717920989  1.0000
  Co  Co24      1.0  0.003238146173619289  0.008750000471737605  0.9968669411531959  1.0000
  W   W7        1.0  0.0066666670973262575  0.006250000272156311  0.9981125015907145  1.0000
  W   W8        1.0  0.0033333333389263154  0.008750000471737605  0.9976114154110053  1.0000
  H   H1        1.0  0.005801902079338155  0.003750000072575016  0.9995639121668723  1.0000
