data_image0
_chemical_formula_structural       COAu2Ca4Sb2
_chemical_formula_sum              "C1 O1 Au2 Ca4 Sb2"
_cell_length_a       5.394948482513428
_cell_length_b       5.394948482513428
_cell_length_c       100.51844024658203
_cell_angle_alpha    90.0
_cell_angle_beta     90.0
_cell_angle_gamma    90.0

_space_group_name_H-M_alt    "P 1"
_space_group_IT_number       1

loop_
  _space_group_symop_operation_xyz
  'x, y, z'

loop_
  _atom_site_type_symbol
  _atom_site_label
  _atom_site_symmetry_multiplicity
  _atom_site_fract_x
  _atom_site_fract_y
  _atom_site_fract_z
  _atom_site_occupancy
  C   C1        1.0  0.005000049868959125  0.007499989007008733  0.00017230587379137076  1.0000
  O   O1        1.0  0.005000049868959125  0.007499989007008733  0.0002916871961562799  1.0000
  Au  Au1       1.0  0.007499995221639475  0.005000010509631098  0.9994323349247822  1.0000
  Au  Au2       1.0  0.002500057733919585  0.00999998994610849  0.9998547318814818  1.0000
  Ca  Ca1       1.0  0.007500004888842849  0.009999971302216266  0.0  1.0000
  Ca  Ca2       1.0  0.007499995221639475  1.0550000241109128e-08  0.9996220913786542  1.0000
  Ca  Ca3       1.0  0.002499995414983542  0.005000010509631098  0.9996220913786542  1.0000
  Ca  Ca4       1.0  0.0025000950217040317  0.0050000067118012  0.9999999887335275  1.0000
  Sb  Sb1       1.0  0.002499995414983542  1.0550000241109128e-08  0.9994323349247822  1.0000
  Sb  Sb2       1.0  0.007499719015828758  0.0050001013122913706  0.9998305807150778  1.0000
