data_image0
_chemical_formula_structural       Fe9Ga12H
_chemical_formula_sum              "Fe9 Ga12 H1"
_cell_length_a       6.283021134049778
_cell_length_b       6.2830213092659895
_cell_length_c       39.876094818115234
_cell_angle_alpha    92.06179241922044
_cell_angle_beta     92.061792476743
_cell_angle_gamma    74.68710307912289

_space_group_name_H-M_alt    "P 1"
_space_group_IT_number       1

loop_
  _space_group_symop_operation_xyz
  'x, y, z'

loop_
  _atom_site_type_symbol
  _atom_site_label
  _atom_site_symmetry_multiplicity
  _atom_site_fract_x
  _atom_site_fract_y
  _atom_site_fract_z
  _atom_site_occupancy
  Fe  Fe1       1.0  0.005146626395491469  0.00514286461738219  0.9994967034132222  1.0000
  Fe  Fe2       1.0  0.009239132747850844  0.009239226851434582  0.9989467203647644  1.0000
  Fe  Fe3       1.0  0.000669390274151793  0.0006692964970699862  7.58863136741405e-06  1.0000
  Fe  Fe4       1.0  0.008286304910232651  0.008284803975010755  3.258079973816139e-06  1.0000
  Fe  Fe5       1.0  0.0019240240032926106  0.001924117618437381  0.9988513540501409  1.0000
  Fe  Fe6       1.0  0.009067638529558098  0.004664611111952937  0.9998279338157414  1.0000
  Fe  Fe7       1.0  0.005342857335606046  0.0013205159414083824  0.9992452059531394  1.0000
  Fe  Fe8       1.0  0.0013204222863457099  0.005342950747666163  0.9992452059517618  1.0000
  Fe  Fe9       1.0  0.004666191164639379  0.009068739857909383  0.999827786088376  1.0000
  Ga  Ga1       1.0  0.007554051303755384  0.007554144816361005  0.9993745356730153  1.0000
  Ga  Ga2       1.0  0.002628043684004041  0.002628759842477073  0.9996717844065871  1.0000
  Ga  Ga3       1.0  0.0046123359173559295  0.0046124296498545915  0.998877364045226  1.0000
  Ga  Ga4       1.0  0.006153848613362319  0.006157392848554357  0.0002664261345369617  1.0000
  Ga  Ga5       1.0  0.002802079745501227  0.008745592015697586  0.9992474567954331  1.0000
  Ga  Ga6       1.0  0.002142803112473658  0.006699007669122743  0.9998922226704137  1.0000
  Ga  Ga7       1.0  0.006698876269960749  0.002141105439417453  0.999892927911714  1.0000
  Ga  Ga8       1.0  0.008745498247381727  0.002802173479783515  0.9992474567952402  1.0000
  Ga  Ga9       1.0  0.009330609904481757  0.005608176994757108  0.998684253657552  1.0000
  Ga  Ga10      1.0  0.0020300706090303133  0.008307637208243318  0.998492839441171  1.0000
  Ga  Ga11      1.0  0.008307543801427631  0.002030164177643969  0.9984928394420882  1.0000
  Ga  Ga12      1.0  0.0056080833789834686  0.009330703072450786  0.9986842536550136  1.0000
  H   H1        1.0  0.004664370424463028  0.0012795352413419066  0.00017366458117567746  1.0000
