data_image0
_chemical_formula_structural       COPb12
_chemical_formula_sum              "C1 O1 Pb12"
_cell_length_a       5.098154067993164
_cell_length_b       6.243938193615207
_cell_length_c       104.19945526123047
_cell_angle_alpha    90.0
_cell_angle_beta     90.0
_cell_angle_gamma    65.90515804406483

_space_group_name_H-M_alt    "P 1"
_space_group_IT_number       1

loop_
  _space_group_symop_operation_xyz
  'x, y, z'

loop_
  _atom_site_type_symbol
  _atom_site_label
  _atom_site_symmetry_multiplicity
  _atom_site_fract_x
  _atom_site_fract_y
  _atom_site_fract_z
  _atom_site_occupancy
  C   C1        1.0  0.009666666835177124  0.002333333171683673  0.0001919399720566473  1.0000
  O   O1        1.0  0.009666666835177124  0.002333333171683673  0.00030710338326610226  1.0000
  Pb  Pb1       1.0  0.005333333499500987  0.000999999930721574  0.9996717889114518  1.0000
  Pb  Pb2       1.0  0.009333333443240343  0.0029999999555572364  0.9998905963038173  1.0000
  Pb  Pb3       1.0  0.0013333336949184333  0.00899999953988668  0.9994529809470618  1.0000
  Pb  Pb4       1.0  0.0023333334622474937  0.007000000005228561  0.9997811926076345  1.0000
  Pb  Pb5       1.0  0.00633333365107562  0.00899999953988668  0.0  1.0000
  Pb  Pb6       1.0  0.008333333512518769  0.004999999817000384  0.9995623846432445  1.0000
  Pb  Pb7       1.0  0.003333333556361582  0.004999999817000384  0.9990153655903062  1.0000
  Pb  Pb8       1.0  0.00733333341840468  0.007000000005228561  0.999234173268684  1.0000
  Pb  Pb9       1.0  0.009333333443240343  0.0029999999555572364  0.9987965581979408  1.0000
  Pb  Pb10      1.0  0.0003333333606654108  0.000999999930721574  0.9991247695725013  1.0000
  Pb  Pb11      1.0  0.004333333487083155  0.0029999999555572364  0.999343577250879  1.0000
  Pb  Pb12      1.0  0.00633333365107562  0.00899999953988668  0.9989059618941235  1.0000
