data_image0
_chemical_formula_structural       Pt12Sb8H
_chemical_formula_sum              "Pt12 Sb8 H1"
_cell_length_a       7.033321227928077
_cell_length_b       7.033321293460074
_cell_length_c       36.33815383911133
_cell_angle_alpha    88.04566486997105
_cell_angle_beta     88.04566485175474
_cell_angle_gamma    104.9644188654325

_space_group_name_H-M_alt    "P 1"
_space_group_IT_number       1

loop_
  _space_group_symop_operation_xyz
  'x, y, z'

loop_
  _atom_site_type_symbol
  _atom_site_label
  _atom_site_symmetry_multiplicity
  _atom_site_fract_x
  _atom_site_fract_y
  _atom_site_fract_z
  _atom_site_occupancy
  Pt  Pt1       1.0  0.006969137678742417  0.004940907429106986  0.999759937430101  1.0000
  Pt  Pt2       1.0  0.0033458309305140098  0.0012088832891771434  0.9986817263901216  1.0000
  Pt  Pt3       1.0  0.002782059442366614  0.005010502227296965  0.9983817885263672  1.0000
  Pt  Pt4       1.0  0.006657647729711159  0.008998115188490634  0.9995847959736778  1.0000
  Pt  Pt5       1.0  0.0030897546422582523  0.0009528071347472165  0.997802819486996  1.0000
  Pt  Pt6       1.0  0.006839754581868571  0.004702807310362772  0.9989607571534913  1.0000
  Pt  Pt7       1.0  0.0034374336501384506  0.005808140396523065  0.9993641675633358  1.0000
  Pt  Pt8       1.0  0.009288135410324184  0.0015165786177102948  0.9981027575987658  1.0000
  Pt  Pt9       1.0  0.0026771378870093336  0.0031722557312312103  0.9999613899260305  1.0000
  Pt  Pt10      1.0  0.009001445198820861  0.00904719260182945  0.998821241609464  1.0000
  Pt  Pt11      1.0  0.0007981887158495133  0.000984092977333265  0.9994027773033235  1.0000
  Pt  Pt12      1.0  0.007126445106544364  0.007172193062820283  0.9982422729784369  1.0000
  Sb  Sb1       1.0  0.0011162261587820681  0.00805672635763293  0.9982539159956665  1.0000
  Sb  Sb2       1.0  0.004741883797935835  0.0017635168636768797  0.9994240595416758  1.0000
  Sb  Sb3       1.0  0.008771442748686716  0.002123397863678917  0.9999740281636058  1.0000
  Sb  Sb4       1.0  0.005011664104185454  0.008162659307016804  0.9988095987565421  1.0000
  Sb  Sb5       1.0  0.00461100987645368  0.0066745496172248234  0.00013087260739804452  1.0000
  Sb  Sb6       1.0  0.009885978348321008  0.0030369738553571277  0.998832884626324  1.0000
  Sb  Sb7       1.0  0.00011402150094662897  0.007013965093844387  0.9993968491969052  1.0000
  Sb  Sb8       1.0  0.0062419115726145905  0.0031824117983166337  0.9982306301282147  1.0000
  H   H1        1.0  0.0027700362161150087  0.0013738049548049857  0.9998262075040097  1.0000
