data_image0
_chemical_formula_structural       HAl4Co8V4Al4Co8V4Al4Co8V4Al4Co8V4
_chemical_formula_sum              "H1 Al16 Co32 V16"
_cell_length_a       8.152532577514648
_cell_length_b       8.152532577514648
_cell_length_c       104.58826446533203
_cell_angle_alpha    90.0
_cell_angle_beta     90.0
_cell_angle_gamma    90.0

_space_group_name_H-M_alt    "P 1"
_space_group_IT_number       1

loop_
  _space_group_symop_operation_xyz
  'x, y, z'

loop_
  _atom_site_type_symbol
  _atom_site_label
  _atom_site_symmetry_multiplicity
  _atom_site_fract_x
  _atom_site_fract_y
  _atom_site_fract_z
  _atom_site_occupancy
  H   H1        1.0  0.0037499997715255804  0.002500001370846518  0.00011775916755278971  1.0000
  Al  Al1       1.0  9.999999951459296e-11  0.00125  0.999594755206643  1.0000
  Al  Al2       1.0  0.002500002513218616  0.0037499986291534824  0.999872501275295  1.0000
  Al  Al3       1.0  9.999999951459296e-11  0.00125  0.999043573777958  1.0000
  Al  Al4       1.0  0.0025  0.0037499997715255804  0.9993191644923005  1.0000
  Co  Co1       1.0  0.009999998172204642  0.003749998857627902  0.9999999179346852  1.0000
  Co  Co2       1.0  0.002500001370846518  0.0012500041125395535  0.0  1.0000
  Co  Co3       1.0  0.0025000009138976785  0.0012500017135581474  0.9997264193159721  1.0000
  Co  Co4       1.0  0.009999997258306964  0.0037499990861023214  0.9997264084879097  1.0000
  Co  Co5       1.0  9.999999951459296e-11  0.0037499997715255804  0.9994569601344208  1.0000
  Co  Co6       1.0  0.0025  0.00125  0.9994569601344208  1.0000
  Co  Co7       1.0  0.0025  0.00125  0.9991813691351293  1.0000
  Co  Co8       1.0  9.999999951459296e-11  0.0037499997715255804  0.9991813691351293  1.0000
  V   V1        1.0  0.01  0.001250002513218616  0.9998829326886428  1.0000
  V   V2        1.0  0.0025  0.0037499997715255804  0.999594755206643  1.0000
  V   V3        1.0  9.999999951459296e-11  0.00125  0.9993191644923005  1.0000
  V   V4        1.0  0.0025  0.0037499997715255804  0.999043573777958  1.0000
  Al  Al5       1.0  9.999999951459296e-11  0.00625  0.999594755206643  1.0000
  Al  Al6       1.0  0.002500002513218616  0.008749998172204643  0.999872501275295  1.0000
  Al  Al7       1.0  9.999999951459296e-11  0.00625  0.999043573777958  1.0000
  Al  Al8       1.0  0.0025  0.00875  0.9993191644923005  1.0000
  Co  Co9       1.0  0.009999998172204642  0.008749999086102321  0.9999999179346852  1.0000
  Co  Co10      1.0  0.002500001370846518  0.006250004112539553  0.0  1.0000
  Co  Co11      1.0  0.0025000009138976785  0.006250001370846518  0.9997264193159721  1.0000
  Co  Co12      1.0  0.009999997258306964  0.008749999086102321  0.9997264084879097  1.0000
  Co  Co13      1.0  9.999999951459296e-11  0.00875  0.9994569601344208  1.0000
  Co  Co14      1.0  0.0025  0.00625  0.9994569601344208  1.0000
  Co  Co15      1.0  0.0025  0.00625  0.9991813691351293  1.0000
  Co  Co16      1.0  9.999999951459296e-11  0.00875  0.9991813691351293  1.0000
  V   V5        1.0  0.01  0.006250002284744196  0.9998829326886428  1.0000
  V   V6        1.0  0.0025  0.00875  0.999594755206643  1.0000
  V   V7        1.0  9.999999951459296e-11  0.00625  0.9993191644923005  1.0000
  V   V8        1.0  0.0025  0.00875  0.999043573777958  1.0000
  Al  Al9       1.0  0.005  0.00125  0.999594755206643  1.0000
  Al  Al10      1.0  0.0075000022847441965  0.0037499986291534824  0.999872501275295  1.0000
  Al  Al11      1.0  0.005  0.00125  0.999043573777958  1.0000
  Al  Al12      1.0  0.0075  0.0037499997715255804  0.9993191644923005  1.0000
  Co  Co17      1.0  0.004999998629153482  0.003749998857627902  0.9999999179346852  1.0000
  Co  Co18      1.0  0.007500001370846518  0.0012500041125395535  0.0  1.0000
  Co  Co19      1.0  0.007500000913897679  0.0012500017135581474  0.9997264193159721  1.0000
  Co  Co20      1.0  0.004999997715255803  0.0037499990861023214  0.9997264084879097  1.0000
  Co  Co21      1.0  0.005  0.0037499997715255804  0.9994569601344208  1.0000
  Co  Co22      1.0  0.0075  0.00125  0.9994569601344208  1.0000
  Co  Co23      1.0  0.0075  0.00125  0.9991813691351293  1.0000
  Co  Co24      1.0  0.005  0.0037499997715255804  0.9991813691351293  1.0000
  V   V9        1.0  0.004999999543051161  0.001250002513218616  0.9998829326886428  1.0000
  V   V10       1.0  0.0075  0.0037499997715255804  0.999594755206643  1.0000
  V   V11       1.0  0.005  0.00125  0.9993191644923005  1.0000
  V   V12       1.0  0.0075  0.0037499997715255804  0.999043573777958  1.0000
  Al  Al13      1.0  0.005  0.00625  0.999594755206643  1.0000
  Al  Al14      1.0  0.0075000022847441965  0.008749998172204643  0.999872501275295  1.0000
  Al  Al15      1.0  0.005  0.00625  0.999043573777958  1.0000
  Al  Al16      1.0  0.0075  0.00875  0.9993191644923005  1.0000
  Co  Co25      1.0  0.004999998629153482  0.008749999086102321  0.9999999179346852  1.0000
  Co  Co26      1.0  0.007500001370846518  0.006250004112539553  0.0  1.0000
  Co  Co27      1.0  0.007500000913897679  0.006250001370846518  0.9997264193159721  1.0000
  Co  Co28      1.0  0.004999997715255803  0.008749999086102321  0.9997264084879097  1.0000
  Co  Co29      1.0  0.005  0.00875  0.9994569601344208  1.0000
  Co  Co30      1.0  0.0075  0.00625  0.9994569601344208  1.0000
  Co  Co31      1.0  0.0075  0.00625  0.9991813691351293  1.0000
  Co  Co32      1.0  0.005  0.00875  0.9991813691351293  1.0000
  V   V13       1.0  0.004999999543051161  0.006250002284744196  0.9998829326886428  1.0000
  V   V14       1.0  0.0075  0.00875  0.999594755206643  1.0000
  V   V15       1.0  0.005  0.00625  0.9993191644923005  1.0000
  V   V16       1.0  0.0075  0.00875  0.999043573777958  1.0000
