data_image0
_chemical_formula_structural       COIn15Pt15
_chemical_formula_sum              "C1 O1 In15 Pt15"
_cell_length_a       7.10727469647309
_cell_length_b       9.001571334852
_cell_length_c       31.14832305908203
_cell_angle_alpha    89.07407737806395
_cell_angle_beta     88.83342737817914
_cell_angle_gamma    106.90212073707728

_space_group_name_H-M_alt    "P 1"
_space_group_IT_number       1

loop_
  _space_group_symop_operation_xyz
  'x, y, z'

loop_
  _atom_site_type_symbol
  _atom_site_label
  _atom_site_symmetry_multiplicity
  _atom_site_fract_x
  _atom_site_fract_y
  _atom_site_fract_z
  _atom_site_occupancy
  C   C1        1.0  0.0064983011349367585  0.00107978060679035  0.0002974051725777378  1.0000
  O   O1        1.0  0.0064983011349367585  0.00107978060679035  0.0006826589595881108  1.0000
  In  In1       1.0  0.008304288048832119  0.008111338003443465  0.9987912563389528  1.0000
  In  In2       1.0  0.0016376217230122888  0.0014446716828954793  0.9977518296199664  1.0000
  In  In3       1.0  0.005181839276199192  0.004983070643099584  0.9999083674126078  1.0000
  In  In4       1.0  0.0013011899757792073  0.0015847413700844917  0.9987854052082399  1.0000
  In  In5       1.0  0.00463452325550701  0.0049180743140343096  0.9977459785184403  1.0000
  In  In6       1.0  0.008074108697062635  0.008455019143131981  0.9997996443147322  1.0000
  In  In7       1.0  0.005307386778467592  0.004637935372304635  0.998797107678458  1.0000
  In  In8       1.0  0.008640720175013283  0.007971268099930278  0.9977576809891261  1.0000
  In  In9       1.0  0.002638377214945651  0.0015341710512981111  0.9997863640576272  1.0000
  In  In10      1.0  0.005317786888603505  0.000247077685368705  0.9989248205328568  1.0000
  In  In11      1.0  0.008651119920448322  0.003580410845642698  0.9978853936040017  1.0000
  In  In12      1.0  0.0020152813842136815  0.00679352184548819  0.9999589123734955  1.0000
  In  In13      1.0  0.00129079011352628  0.0059755988406962465  0.9986576923536997  1.0000
  In  In14      1.0  0.004624123276436196  0.00930893200097024  0.9976182656634327  1.0000
  In  In15      1.0  0.008007349033011335  0.0024994949695803215  0.999695668365895  1.0000
  Pt  Pt1       1.0  0.001637621698051732  0.006444671423306469  0.9977518295423596  1.0000
  Pt  Pt2       1.0  0.005122723440119889  0.009752921795453274  0.9997864844472818  1.0000
  Pt  Pt3       1.0  0.008304288270390321  0.003111338263032476  0.9987912564156463  1.0000
  Pt  Pt4       1.0  0.001815909658078731  0.003973647527411215  0.999372592179456  1.0000
  Pt  Pt5       1.0  0.005074771504996387  0.00733778957673285  0.9982947623895307  1.0000
  Pt  Pt6       1.0  0.008408104877386932  0.0006711236888332146  0.9972553358517154  1.0000
  Pt  Pt7       1.0  0.001490602545595083  0.008887532507466472  0.9992954480271975  1.0000
  Pt  Pt8       1.0  0.004867138449198457  0.0022182198932819194  0.9982483235695515  1.0000
  Pt  Pt9       1.0  0.008200471663393712  0.0055515528372317375  0.9972088968800564  1.0000
  Pt  Pt10      1.0  0.001972687734210961  0.009040771361475828  0.9983263486189181  1.0000
  Pt  Pt11      1.0  0.005306020895756652  0.002374105257252017  0.9972869218438957  1.0000
  Pt  Pt12      1.0  0.008709209527487556  0.00565586348926949  0.999424703134097  1.0000
  Pt  Pt13      1.0  0.004583400031325439  0.007135807694245957  0.9992223276557091  1.0000
  Pt  Pt14      1.0  0.007969222068973847  0.0005152380544578978  0.9982167373411183  1.0000
  Pt  Pt15      1.0  0.0013025554859498495  0.0038485710524887593  0.9971773109470327  1.0000
