data_image0
_chemical_formula_structural       CONa24Sn12Se36
_chemical_formula_sum              "C1 O1 Na24 Sn12 Se36"
_cell_length_a       16.947576692813577
_cell_length_b       17.859726369758437
_cell_length_c       100.67543029785156
_cell_angle_alpha    80.85166424571658
_cell_angle_beta     87.12598723491398
_cell_angle_gamma    71.126149529809

_space_group_name_H-M_alt    "P 1"
_space_group_IT_number       1

loop_
  _space_group_symop_operation_xyz
  'x, y, z'

loop_
  _atom_site_type_symbol
  _atom_site_label
  _atom_site_symmetry_multiplicity
  _atom_site_fract_x
  _atom_site_fract_y
  _atom_site_fract_z
  _atom_site_occupancy
  C   C1        1.0  0.005561336771595956  0.00653183057073681  0.9998566829715536  1.0000
  O   O1        1.0  0.005561336771595956  0.00653183057073681  0.9999758781344964  1.0000
  Na  Na1       1.0  0.0030689719575132776  0.002889385854279727  0.999414712083442  1.0000
  Na  Na2       1.0  0.005991914075666933  0.0029548390161119507  0.9995901577238653  1.0000
  Na  Na3       1.0  0.009791092376513233  0.0028436381397924366  0.999170121135651  1.0000
  Na  Na4       1.0  0.004568351611898765  0.009762910776218825  0.9992954416250247  1.0000
  Na  Na5       1.0  0.008048614614859636  0.009701555921931357  0.9995179649077119  1.0000
  Na  Na6       1.0  0.00123501850622236  0.0097629107738983  0.9990415278117343  1.0000
  Na  Na7       1.0  0.00607961588712177  0.008218645930574097  0.999617293343571  1.0000
  Na  Na8       1.0  0.009619428831701369  0.008358628386756146  0.999157045108243  1.0000
  Na  Na9       1.0  0.002952761923439596  0.008358628596180511  0.9994109583296826  1.0000
  Na  Na10      1.0  0.006875574661838213  0.003358628815178029  0.9993064152442843  1.0000
  Na  Na11      1.0  0.000337129303994529  0.00336358667776607  0.9995228689260138  1.0000
  Na  Na12      1.0  0.003542241207707327  0.0033586284973432692  0.9990525020348817  1.0000
  Na  Na13      1.0  0.007372084199804892  0.005061419012004301  0.999518750414033  1.0000
  Na  Na14      1.0  0.000990463046162536  0.004762911063844164  0.9990967057693484  1.0000
  Na  Na15      1.0  0.0043237965002934226  0.004762910959131982  0.9993506192866928  1.0000
  Na  Na16      1.0  0.0037139047525191903  0.007843637996851394  0.9990655783181004  1.0000
  Na  Na17      1.0  0.007047238206650077  0.007843637892139212  0.9993194918354448  1.0000
  Na  Na18      1.0  0.0006574495122722583  0.007809648247049089  0.9995733908236206  1.0000
  Na  Na19      1.0  0.005341082875506889  0.0066831996602156355  0.9994397322147605  1.0000
  Na  Na20      1.0  0.008482305708174282  0.006426594363140458  0.9996159248997645  1.0000
  Na  Na21      1.0  0.002098314831757033  0.006439355888168218  0.9991810953187302  1.0000
  Na  Na22      1.0  0.0023428701756653633  0.0014393558874280883  0.9991259174013033  1.0000
  Na  Na23      1.0  0.00567620362979625  0.0014393557827159062  0.9993798309186477  1.0000
  Na  Na24      1.0  0.009031829575511003  0.0011750689648854045  0.9996050127678987  1.0000
  Sn  Sn1       1.0  0.006133190066691548  0.006441442671904633  0.9990378867566445  1.0000
  Sn  Sn2       1.0  0.009466523288519447  0.006441442638547588  0.999291800273937  1.0000
  Sn  Sn3       1.0  0.002863200991176263  0.006393392751216425  0.999556740389604  1.0000
  Sn  Sn4       1.0  0.005040071168863591  0.005158286435814242  0.9997475534252008  1.0000
  Sn  Sn5       1.0  0.008360063230122713  0.004760824869495682  0.9992075166749881  1.0000
  Sn  Sn6       1.0  0.0016895271994536055  0.004711598613597  0.9994657345468138  1.0000
  Sn  Sn7       1.0  0.003402482387493693  0.009614281143038408  0.9996296801912533  1.0000
  Sn  Sn8       1.0  0.007200142820620048  0.009760824770862205  0.9991847366457077  1.0000
  Sn  Sn9       1.0  0.0006114827909352207  0.009768127471019402  0.999437362762633  1.0000
  Sn  Sn10      1.0  0.0049732705864008325  0.0014414423301053  0.9990151064777196  1.0000
  Sn  Sn11      1.0  0.008306603808228731  0.0014414425080217265  0.9992690199890533  1.0000
  Sn  Sn12      1.0  0.001936430429656009  0.0015074709679638745  0.9995345234306066  1.0000
  Se  Se1       1.0  0.0059236811129836095  0.00456750798010865  0.9995507699848234  1.0000
  Se  Se2       1.0  0.009328449826479703  0.004544015203692114  0.9990043445656133  1.0000
  Se  Se3       1.0  0.002661783382823905  0.00454401484785926  0.9992582580950982  1.0000
  Se  Se4       1.0  0.006821122376975906  0.006610223990487869  0.9995998185731714  1.0000
  Se  Se5       1.0  0.0002903710973414042  0.006658251812122367  0.999077617993075  1.0000
  Se  Se6       1.0  0.00362370429013143  0.006658251787684715  0.9993315315103611  1.0000
  Se  Se7       1.0  0.003042962385827356  0.00954401480534719  0.9991450051374219  1.0000
  Se  Se8       1.0  0.006376295607655255  0.009544014771990145  0.9993989186547144  1.0000
  Se  Se9       1.0  0.009822988505900927  0.009462046928079148  0.9996502134268561  1.0000
  Se  Se10      1.0  0.004471902663754798  0.008512354409275913  0.9995205469418528  1.0000
  Se  Se11      1.0  0.0077350139447208985  0.008641968443136453  0.9990425394876377  1.0000
  Se  Se12      1.0  0.0010683472687621125  0.008641968581205679  0.9992964527091291  1.0000
  Se  Se13      1.0  0.006823183369080488  0.004926809560121766  0.9991374733159306  1.0000
  Se  Se14      1.0  0.00015651689638681657  0.004926809635755247  0.9993913868334912  1.0000
  Se  Se15      1.0  0.0036348097667490676  0.004950039450123163  0.9996774051558023  1.0000
  Se  Se16      1.0  0.004706967733717173  0.0062754572388703  0.9989762725623477  1.0000
  Se  Se17      1.0  0.008040300955545072  0.006275457205513256  0.9992301860796402  1.0000
  Se  Se18      1.0  0.0014580032400802981  0.006176111175197327  0.9994990816575409  1.0000
  Se  Se19      1.0  0.004888606368809783  0.00308391942524921  0.9993721527358627  1.0000
  Se  Se20      1.0  0.0080955704823172  0.0025602984213965074  0.9990700045813667  1.0000
  Se  Se21      1.0  0.001428904038661402  0.002560298276837126  0.9993239181048927  1.0000
  Se  Se22      1.0  0.005598319407196673  0.007560298011826226  0.999180083938654  1.0000
  Se  Se23      1.0  0.009084971206918166  0.007518962485595615  0.9994434604032824  1.0000
  Se  Se24      1.0  0.002368939681522045  0.007566603536192094  0.9996788929649337  1.0000
  Se  Se25      1.0  0.0052930323963724995  0.009926810094543307  0.9989924370267919  1.0000
  Se  Se26      1.0  0.008626366082806373  0.009926809918475986  0.9992463508402118  1.0000
  Se  Se27      1.0  0.002082486635404706  7.319036760217019e-05  0.9994292776066466  1.0000
  Se  Se28      1.0  0.004004883060831893  0.0016582518587824762  0.9992182785988051  1.0000
  Se  Se29      1.0  0.007389008866257944  0.0016014309243481966  0.9994892249092058  1.0000
  Se  Se30      1.0  0.0006715500132312348  0.001658251838623168  0.9989643650815514  1.0000
  Se  Se31      1.0  0.0052377624049943965  0.0036419688523515533  0.9991526185770926  1.0000
  Se  Se32      1.0  0.008571095626822296  0.0036419688189945083  0.9994065320943851  1.0000
  Se  Se33      1.0  0.001953250908219193  0.0035183602933752797  0.9996458890139043  1.0000
  Se  Se34      1.0  0.0036532395242577544  0.0010499169161691277  0.9995016340302436  1.0000
  Se  Se35      1.0  0.006510149982837083  0.001275457148369078  0.9990851498545503  1.0000
  Se  Se36      1.0  0.009843483204664983  0.0012754571150120331  0.9993390633718429  1.0000
