data_image0
_chemical_formula_structural       COCu6Au6Se24
_chemical_formula_sum              "C1 O1 Cu6 Au6 Se24"
_cell_length_a       11.790601923526362
_cell_length_b       9.675833637066157
_cell_length_c       105.38206481933594
_cell_angle_alpha    105.24968280742333
_cell_angle_beta     80.35817295215014
_cell_angle_gamma    66.75565029239783

_space_group_name_H-M_alt    "P 1"
_space_group_IT_number       1

loop_
  _space_group_symop_operation_xyz
  'x, y, z'

loop_
  _atom_site_type_symbol
  _atom_site_label
  _atom_site_symmetry_multiplicity
  _atom_site_fract_x
  _atom_site_fract_y
  _atom_site_fract_z
  _atom_site_occupancy
  C   C1        1.0  0.004665379518768901  0.009886121607395833  3.745433818136598e-05  1.0000
  O   O1        1.0  0.004665379518768901  0.009886121607395833  0.00015132537244723178  1.0000
  Cu  Cu1       1.0  0.004721926992978129  0.003409270419987252  0.9996624017496891  1.0000
  Cu  Cu2       1.0  0.008055260232303608  0.003409270419987252  0.999382609708981  1.0000
  Cu  Cu3       1.0  0.0018926463285716827  0.002121885645244747  0.9998832601789265  1.0000
  Cu  Cu4       1.0  0.005129251996675315  0.006592066280360787  0.9992085239284354  1.0000
  Cu  Cu5       1.0  0.008717396072529988  0.0065211766897910195  0.9997016955457451  1.0000
  Cu  Cu6       1.0  0.0017959187573498357  0.006592066280360787  0.999488315686341  1.0000
  Au  Au1       1.0  0.008258922668708821  6.682499863538483e-07  0.9995753589852988  1.0000
  Au  Au2       1.0  0.00159225619005786  6.682499863538483e-07  0.9992955668374968  1.0000
  Au  Au3       1.0  0.005179320602112527  0.009126346317984492  0.9998585107315884  1.0000
  Au  Au4       1.0  0.006592256369527399  6.682499863538483e-07  0.9992955666022355  1.0000
  Au  Au5       1.0  0.009919832779568887  0.009999332126570023  0.999869616100177  1.0000
  Au  Au6       1.0  0.0032589228097205996  6.682499863538483e-07  0.9995753586489493  1.0000
  Se  Se1       1.0  0.005260021958135202  0.0030643989506852795  0.9994097107339062  1.0000
  Se  Se2       1.0  0.008504955777362603  0.003040397586614426  0.9999823784994913  1.0000
  Se  Se3       1.0  0.0018874469052183782  0.003034618189475656  0.9996909832817468  1.0000
  Se  Se4       1.0  0.002942912556161491  0.006936937974542026  0.9991845153850497  1.0000
  Se  Se5       1.0  0.006646857374254925  0.006321745211201425  0.999729463766898  1.0000
  Se  Se6       1.0  0.009609579034812452  0.006936937974542026  0.9994643075328518  1.0000
  Se  Se7       1.0  0.00459115694822043  0.006936937974542026  0.9994612146684076  1.0000
  Se  Se8       1.0  0.00792449018754591  0.006936937974542026  0.999181422910502  1.0000
  Se  Se9       1.0  0.001417606532501625  0.006979059210358153  0.999742610000553  1.0000
  Se  Se10      1.0  0.006837065860537824  0.0029717765780810745  0.9997095518645138  1.0000
  Se  Se11      1.0  0.00024159987154318108  0.0030643989506852795  0.9994066181522646  1.0000
  Se  Se12      1.0  0.003966031000869067  0.0019505323669411331  0.9998921063935968  1.0000
  Se  Se13      1.0  0.0064119061924892235  0.0034420189128715967  0.9999510672916819  1.0000
  Se  Se14      1.0  0.009771011948256476  0.003667207163083221  0.9996582817094841  1.0000
  Se  Se15      1.0  0.003104345469605516  0.003667207163083221  0.9993784895616821  1.0000
  Se  Se16      1.0  0.003370194976426136  0.0061773578803336615  0.999796150115329  1.0000
  Se  Se17      1.0  0.00674683360334574  0.006334129312385552  0.999492435826648  1.0000
  Se  Se18      1.0  8.01668042134626e-05  0.006334129312385552  0.9992126439676542  1.0000
  Se  Se19      1.0  0.004806979673635132  0.00933126979801078  0.9992355746555073  1.0000
  Se  Se20      1.0  0.00823773105242623  0.009280407505121347  0.99978891381498  1.0000
  Se  Se21      1.0  0.0014736461138283345  0.00933126979801078  0.9995153667022211  1.0000
  Se  Se22      1.0  0.005044199657324083  0.0006700668461174426  0.9996353507320611  1.0000
  Se  Se23      1.0  0.00837753321713088  0.0006700668461174426  0.9993555586853473  1.0000
  Se  Se24      1.0  0.0008521472239209648  0.001326735722879546  3.066709216594598e-05  1.0000
