data_image0
_chemical_formula_structural       COCa20Ge10
_chemical_formula_sum              "C1 O1 Ca20 Ge10"
_cell_length_a       5.163009166717529
_cell_length_b       15.489026943623891
_cell_length_c       106.87126159667969
_cell_angle_alpha    98.04946710169521
_cell_angle_beta     90.0
_cell_angle_gamma    90.0

_space_group_name_H-M_alt    "P 1"
_space_group_IT_number       1

loop_
  _space_group_symop_operation_xyz
  'x, y, z'

loop_
  _atom_site_type_symbol
  _atom_site_label
  _atom_site_symmetry_multiplicity
  _atom_site_fract_x
  _atom_site_fract_y
  _atom_site_fract_z
  _atom_site_occupancy
  C   C1        1.0  0.007500000432920824  0.0009034177962633114  0.0001788060368453128  1.0000
  O   O1        1.0  0.007500000432920824  0.0009034177962633114  0.00029109089377889923  1.0000
  Ca  Ca1       1.0  0.002499999603155912  0.009083333146782458  0.9994474356640394  1.0000
  Ca  Ca2       1.0  0.002499999603155912  0.004416666798806871  0.9992174315153904  1.0000
  Ca  Ca3       1.0  0.002499999603155912  0.0037500000388647663  0.9996774400245112  1.0000
  Ca  Ca4       1.0  0.002499999603155912  0.009749999906724562  0.9989874274337806  1.0000
  Ca  Ca5       1.0  0.0024999997835395884  0.008430723772625824  0.9999193814259845  1.0000
  Ca  Ca6       1.0  0.002499999603155912  0.0014166666219721862  0.9995624376663952  1.0000
  Ca  Ca7       1.0  0.002499999603155912  0.006749999972794665  0.9993324335897149  1.0000
  Ca  Ca8       1.0  0.0024999997835395884  0.006017948588319777  0.9997621572956766  1.0000
  Ca  Ca9       1.0  0.002499999603155912  0.0020833333819142907  0.9991024294361364  1.0000
  Ca  Ca10      1.0  0.0025000003246906178  0.0007452742101412602  1.5124959161327999e-05  1.0000
  Ca  Ca11      1.0  0.007499999711386118  0.0017500000019432384  0.9993324336906967  1.0000
  Ca  Ca12      1.0  0.007499999711386118  0.007083333352765717  0.9991024293351545  1.0000
  Ca  Ca13      1.0  0.007499999711386118  0.006416666592823612  0.9995624378442752  1.0000
  Ca  Ca14      1.0  0.007499999711386118  0.006264482371999361  0.9999922601242702  1.0000
  Ca  Ca15      1.0  0.007499999711386118  0.001072999100778141  0.9997887149097767  1.0000
  Ca  Ca16      1.0  0.007499999711386118  0.009416666526753511  0.9992174314094789  1.0000
  Ca  Ca17      1.0  0.007499999711386118  0.004750000178777923  0.9989874272608301  1.0000
  Ca  Ca18      1.0  0.007499999711386118  0.004083333418835818  0.9994474354910889  1.0000
  Ca  Ca19      1.0  0.007499999711386118  0.0033747701984696114  0.999907996966009  1.0000
  Ca  Ca20      1.0  0.007499999711386118  0.008749999766811406  0.9996774396397379  1.0000
  Ge  Ge1       1.0  0.0024999997835395884  0.002293333799943712  0.9998519193021675  1.0000
  Ge  Ge2       1.0  0.002499999603155912  0.007583333422722295  0.999619939025798  1.0000
  Ge  Ge3       1.0  0.002499999603155912  0.00358333334887924  0.9989299263581691  1.0000
  Ge  Ge4       1.0  0.002499999603155912  0.0029166665889371352  0.9993899348672899  1.0000
  Ge  Ge5       1.0  0.002499999603155912  0.008249999696854828  0.9991599305068181  1.0000
  Ge  Ge6       1.0  0.007499999711386118  0.00025000000461519094  0.9995049364891858  1.0000
  Ge  Ge7       1.0  0.007499999711386118  0.005583333142895982  0.9992749324081921  1.0000
  Ge  Ge8       1.0  0.007499999711386118  0.004916666382953877  0.9997349411961748  1.0000
  Ge  Ge9       1.0  0.007499999711386118  0.0009166666127418042  0.999044928255846  1.0000
  Ge  Ge10      1.0  0.007499999711386118  0.009608856680051072  0.9999570562119546  1.0000
