data_image0
_chemical_formula_structural       HGa2Mo6Ga2Mo6
_chemical_formula_sum              "H1 Ga4 Mo12"
_cell_length_a       4.972899436950684
_cell_length_b       4.972899436950684
_cell_length_c       104.81029510498047
_cell_angle_alpha    90.0
_cell_angle_beta     90.0
_cell_angle_gamma    90.0

_space_group_name_H-M_alt    "P 1"
_space_group_IT_number       1

loop_
  _space_group_symop_operation_xyz
  'x, y, z'

loop_
  _atom_site_type_symbol
  _atom_site_label
  _atom_site_symmetry_multiplicity
  _atom_site_fract_x
  _atom_site_fract_y
  _atom_site_fract_z
  _atom_site_occupancy
  H   H1        1.0  0.00623403531377536  0.0011859580319859878  0.00011754951431080687  1.0000
  Ga  Ga1       1.0  0.0012340318603396936  0.001185949229845192  0.9995462752075585  1.0000
  Ga  Ga2       1.0  0.006234031942742714  0.006185949405888009  0.999309041882572  1.0000
  Mo  Mo1       1.0  0.0012340318603396936  0.006185949405888009  0.9991904252200787  1.0000
  Mo  Mo2       1.0  0.0012340318603396936  0.006185949405888009  0.9994276588294106  1.0000
  Mo  Mo3       1.0  0.006234031942742714  0.0036859492710467024  0.9995462752075585  1.0000
  Mo  Mo4       1.0  0.006234031942742714  0.008685949540729314  0.9995462752075585  1.0000
  Mo  Mo5       1.0  0.008734032452143202  0.001185949229845192  0.999309041882572  1.0000
  Mo  Mo6       1.0  0.003734032182460591  0.001185949229845192  0.999309041882572  1.0000
  Ga  Ga3       1.0  0.0012340369168886613  0.0011859686132829018  3.2589960506475065e-05  1.0000
  Ga  Ga4       1.0  0.006234033440979446  0.006185929928810503  0.9997778819063169  1.0000
  Mo  Mo7       1.0  0.0012340318603396936  0.006185949405888009  0.9996648921543971  1.0000
  Mo  Mo8       1.0  0.0012340342013345861  0.006185948656769642  0.9999106012462425  1.0000
  Mo  Mo9       1.0  0.00623403531377536  0.0035578653874569635  0.9999999982939277  1.0000
  Mo  Mo10      1.0  0.006234035688334542  0.008814051028600644  0.0  1.0000
  Mo  Mo11      1.0  0.008765968866305122  0.0011859719843155471  0.9997821487929743  1.0000
  Mo  Mo12      1.0  0.003702098015653769  0.0011859708606379985  0.9997821487929743  1.0000
