data_image0
_chemical_formula_structural       COAl36Ir8
_chemical_formula_sum              "C1 O1 Al36 Ir8"
_cell_length_a       6.432790955751771
_cell_length_b       10.948929363030919
_cell_length_c       102.84678649902344
_cell_angle_alpha    72.7196075023807
_cell_angle_beta     94.01659569939315
_cell_angle_gamma    94.01659587900693

_space_group_name_H-M_alt    "P 1"
_space_group_IT_number       1

loop_
  _space_group_symop_operation_xyz
  'x, y, z'

loop_
  _atom_site_type_symbol
  _atom_site_label
  _atom_site_symmetry_multiplicity
  _atom_site_fract_x
  _atom_site_fract_y
  _atom_site_fract_z
  _atom_site_occupancy
  C   C1        1.0  0.0012666412008316963  0.004413434590712898  0.9999134207034673  1.0000
  O   O1        1.0  0.0012666412008316963  0.004413434590712898  3.0099354567560995e-05  1.0000
  Al  Al1       1.0  0.0004904697058217981  0.007500000399619508  0.9988115008842143  1.0000
  Al  Al2       1.0  0.0004904696952867451  0.0025000001926736913  0.9993437940353037  1.0000
  Al  Al3       1.0  0.0004904696952867451  0.0025000001926736913  0.9988115006820752  1.0000
  Al  Al4       1.0  0.0004904697058217981  0.007500000399619508  0.9993437942374428  1.0000
  Al  Al5       1.0  0.008401890222841536  0.005333072897494445  0.9995331561705589  1.0000
  Al  Al6       1.0  0.00835891395320043  0.0003214544223761486  0.9990013210801839  1.0000
  Al  Al7       1.0  0.0024671756089301527  0.0006918200424414185  0.9995794854196869  1.0000
  Al  Al8       1.0  0.0026220249186130677  0.005716957030010466  0.9990434257850912  1.0000
  Al  Al9       1.0  0.005923454266199174  0.006199540044797575  0.9997167834875368  1.0000
  Al  Al10      1.0  0.0064862641613008  0.0012488266600377022  0.9991894655011964  1.0000
  Al  Al11      1.0  0.004494675158140302  0.003949657955387666  0.9989446989804214  1.0000
  Al  Al12      1.0  0.004494675253429954  0.008949657983931917  0.9994769922520279  1.0000
  Al  Al13      1.0  0.004494885039740324  0.0037810010399013  0.9994913824747494  1.0000
  Al  Al14      1.0  0.004494675231248414  0.008751174110657062  0.9989658294358245  1.0000
  Al  Al15      1.0  0.00648626388404152  0.0060503421017008355  0.9992105956878571  1.0000
  Al  Al16      1.0  0.006227161268997119  0.0009709990471700819  0.9997319519989855  1.0000
  Al  Al17      1.0  0.006609561637015347  0.0015343171553617429  0.9994481902783388  1.0000
  Al  Al18      1.0  0.0066095617172800755  0.006534317005504428  0.9989158971388382  1.0000
  Al  Al19      1.0  0.004371377718807469  0.006519372663139298  0.9994465994365939  1.0000
  Al  Al20      1.0  0.004371377638542741  0.001519372812996613  0.9989143061594115  1.0000
  Al  Al21      1.0  0.0047808042078599355  0.008422199482476753  0.9997546073557797  1.0000
  Al  Al22      1.0  0.004371377615169447  0.0034656830515840736  0.9992393978204859  1.0000
  Al  Al23      1.0  0.006330398536135111  0.0036013963339271756  0.9997568420861256  1.0000
  Al  Al24      1.0  0.006609561708931705  0.008480627422493454  0.9992409885045629  1.0000
  Al  Al25      1.0  0.009509530220744845  0.004942039857433115  0.9988421534615705  1.0000
  Al  Al26      1.0  0.009509530346084342  0.009942040242780498  0.9993744467220255  1.0000
  Al  Al27      1.0  0.0015125506806201343  0.0072220942900629295  0.9996230010973604  1.0000
  Al  Al28      1.0  0.0014714090630791605  0.002212069163929311  0.9990838178763415  1.0000
  Al  Al29      1.0  0.0014714090691875998  0.005057960556458518  0.99931314119651  1.0000
  Al  Al30      1.0  0.0014714090361352384  5.796040526319101e-05  0.9987808479290547  1.0000
  Al  Al31      1.0  0.009484738428843034  0.0027071490300001446  0.9996142452604296  1.0000
  Al  Al32      1.0  0.009509529864018658  0.007787931249962322  0.9990714770699234  1.0000
  Al  Al33      1.0  0.008551317562272825  0.009445685697521921  0.9996395152300205  1.0000
  Al  Al34      1.0  0.0083589141536186  0.004283043383881167  0.9991118688720355  1.0000
  Al  Al35      1.0  0.0023860258181467014  0.004651447969334615  0.9996711301208693  1.0000
  Al  Al36      1.0  0.002622024985166081  0.00967854612531666  0.9991539738618991  1.0000
  Ir  Ir1       1.0  0.007848648427092361  0.0039563919008908915  0.9993680574681265  1.0000
  Ir  Ir2       1.0  0.007848648552431859  0.008956392286238273  0.9988357643118984  1.0000
  Ir  Ir3       1.0  0.0031918164269825284  0.0023580185929141387  0.9997034750647409  1.0000
  Ir  Ir4       1.0  0.0031322908789568477  0.007272083836016615  0.9991887486479408  1.0000
  Ir  Ir5       1.0  0.0031322906451393072  0.0060436085130007415  0.9987872371890003  1.0000
  Ir  Ir6       1.0  0.0031322908175799714  0.0010436082168541424  0.9993195300539381  1.0000
  Ir  Ir7       1.0  0.007840678049752333  0.007719723336107683  0.9995064689242973  1.0000
  Ir  Ir8       1.0  0.007848648483542522  0.002727916577875018  0.9989665463002316  1.0000
