data_image0
_chemical_formula_structural       HCu8Ge4Se12
_chemical_formula_sum              "H1 Cu8 Ge4 Se12"
_cell_length_a       6.959047390046927
_cell_length_b       6.959047412462767
_cell_length_c       109.88410186767578
_cell_angle_alpha    90.66438280883442
_cell_angle_beta     90.66438281097456
_cell_angle_gamma    119.6741994504603

_space_group_name_H-M_alt    "P 1"
_space_group_IT_number       1

loop_
  _space_group_symop_operation_xyz
  'x, y, z'

loop_
  _atom_site_type_symbol
  _atom_site_label
  _atom_site_symmetry_multiplicity
  _atom_site_fract_x
  _atom_site_fract_y
  _atom_site_fract_z
  _atom_site_occupancy
  H   H1        1.0  0.001828423794656961  0.0008610404188221913  8.448106363302903e-05  1.0000
  Cu  Cu1       1.0  0.008243703826917942  0.00560188521553011  0.9993266343451987  1.0000
  Cu  Cu2       1.0  0.0015770375578465757  0.008935218631028748  0.9990241630877783  1.0000
  Cu  Cu3       1.0  0.008231648221827896  0.00228060806918174  0.9990241630878532  1.0000
  Cu  Cu4       1.0  0.004898315021173553  0.00894727474611907  0.999326634345731  1.0000
  Cu  Cu5       1.0  0.0017376912545998778  0.00909781288120593  0.9999385132509719  1.0000
  Cu  Cu6       1.0  0.004910370710345955  0.0022685522622113087  0.9996291050406365  1.0000
  Cu  Cu7       1.0  0.0015649816087794299  0.005613941330620432  0.9996291050406122  1.0000
  Cu  Cu8       1.0  0.008391765696140582  0.0024427968335825243  0.9999384317371502  1.0000
  Ge  Ge1       1.0  0.0017664938296798102  0.002470064365505717  0.9993355032471036  1.0000
  Ge  Ge2       1.0  0.005099827022552838  0.005803397472884463  0.999033032280619  1.0000
  Ge  Ge3       1.0  0.005105996734515802  0.005811092459039281  0.9999421277190601  1.0000
  Ge  Ge4       1.0  0.008433160368027947  0.0091367308883831  0.9996379745250178  1.0000
  Se  Se1       1.0  0.0016338368901751095  0.0057530488339954545  0.9994069696973715  1.0000
  Se  Se2       1.0  0.004967170269109726  0.009086382249494093  0.9991044987312498  1.0000
  Se  Se3       1.0  0.005049478039023288  0.002337407352046251  0.999406969697127  1.0000
  Se  Se4       1.0  0.008382811384498395  0.005670740767544889  0.9991044987309806  1.0000
  Se  Se5       1.0  0.001595369686974225  0.002298940278329381  0.9991008860691841  1.0000
  Se  Se6       1.0  0.008262036082102306  0.00896560664714682  0.9994033573468799  1.0000
  Se  Se7       1.0  0.005093411537860396  0.00913895921143394  1.0451489833424638e-05  1.0000
  Se  Se8       1.0  0.008300503560760564  0.002419715418496817  0.9997094404126549  1.0000
  Se  Se9       1.0  0.008435018338059312  0.005800576943403355  1.0445721278068241e-05  1.0000
  Se  Se10      1.0  0.0017161451154270296  0.009004074183043527  0.9997094404128893  1.0000
  Se  Se11      1.0  0.004928702870465229  0.0056322732316481825  0.9997058280419084  1.0000
  Se  Se12      1.0  0.0018048136362647696  0.002509925065489034  6.119342380088411e-06  1.0000
