data_image0
_chemical_formula_structural       CORh12W4Rh12W4
_chemical_formula_sum              "C1 O1 Rh24 W8"
_cell_length_a       7.049756741528099
_cell_length_b       5.517900642612572
_cell_length_c       112.29853820800781
_cell_angle_alpha    66.96122505873915
_cell_angle_beta     76.98162569064536
_cell_angle_gamma    66.96122540870405

_space_group_name_H-M_alt    "P 1"
_space_group_IT_number       1

loop_
  _space_group_symop_operation_xyz
  'x, y, z'

loop_
  _atom_site_type_symbol
  _atom_site_label
  _atom_site_symmetry_multiplicity
  _atom_site_fract_x
  _atom_site_fract_y
  _atom_site_fract_z
  _atom_site_occupancy
  C   C1        1.0  0.005193817908191636  0.0021023185116618797  0.9999317029040606  1.0000
  O   O1        1.0  0.005193817908191636  0.0021023185116618797  3.85611455852362e-05  1.0000
  Rh  Rh1       1.0  0.0070859868250510005  0.0016560522895664777  0.9995540650313586  1.0000
  Rh  Rh2       1.0  0.002085986842340645  0.001656052501750762  0.9992401804085045  1.0000
  Rh  Rh3       1.0  0.0029140131403697107  0.0033280262403960373  0.9996060456278787  1.0000
  Rh  Rh4       1.0  0.007914013267160439  0.003328026329127248  0.9992921609633886  1.0000
  Rh  Rh5       1.0  0.0004219738057088028  0.0033280261845565055  0.9994496032531918  1.0000
  Rh  Rh6       1.0  0.005421973788419158  0.0033280263391939403  0.999763487868992  1.0000
  Rh  Rh7       1.0  0.009578026303792281  0.006671973559934602  0.9997105074999533  1.0000
  Rh  Rh8       1.0  0.004578026177001553  0.0066719742048468285  0.9993966228708155  1.0000
  Rh  Rh9       1.0  0.0070859868250510005  0.006671973570001295  0.9995540645952669  1.0000
  Rh  Rh10      1.0  0.002085986842340645  0.006671974149007298  0.999240179965359  1.0000
  Rh  Rh11      1.0  0.0029140131403697107  0.008343947887652574  0.9996060457155027  1.0000
  Rh  Rh12      1.0  0.007914013267160439  0.008343947242740346  0.9992921610651202  1.0000
  W   W1        1.0  0.009583333072067593  0.0016666668008494879  0.9997108407558021  1.0000
  W   W2        1.0  0.004583333233437609  0.0016666665803058297  0.9993969561392316  1.0000
  W   W3        1.0  0.00041666671325265377  0.008333333458752342  0.999449269992022  1.0000
  W   W4        1.0  0.005416666443822358  0.008333333728725667  0.99976315460917  1.0000
  Rh  Rh13      1.0  0.0070859868250510005  0.0016560522895664777  0.9989262957518383  1.0000
  Rh  Rh14      1.0  0.002085986842340645  0.001656052501750762  0.9986124108635994  1.0000
  Rh  Rh15      1.0  0.0029140131403697107  0.0033280262403960373  0.9989782763483585  1.0000
  Rh  Rh16      1.0  0.007914013267160439  0.003328026329127248  0.9986643916838682  1.0000
  Rh  Rh17      1.0  0.0004219738057088028  0.0033280261845565055  0.9988218339736714  1.0000
  Rh  Rh18      1.0  0.005421973788419158  0.0033280263391939403  0.9991357185894717  1.0000
  Rh  Rh19      1.0  0.009578026303792281  0.006671973559934602  0.9990827382204329  1.0000
  Rh  Rh20      1.0  0.004578026177001553  0.0066719742048468285  0.9987688535912952  1.0000
  Rh  Rh21      1.0  0.0070859868250510005  0.006671973570001295  0.9989262953157465  1.0000
  Rh  Rh22      1.0  0.002085986842340645  0.006671974149007298  0.9986124109512234  1.0000
  Rh  Rh23      1.0  0.0029140131403697107  0.008343947887652574  0.9989782764359824  1.0000
  Rh  Rh24      1.0  0.007914013267160439  0.008343947242740346  0.9986643917855998  1.0000
  W   W5        1.0  0.009583333072067593  0.0016666668008494879  0.9990830714762817  1.0000
  W   W6        1.0  0.004583333233437609  0.0016666665803058297  0.9987691868597113  1.0000
  W   W7        1.0  0.00041666671325265377  0.008333333458752342  0.9988215007125016  1.0000
  W   W8        1.0  0.005416666443822358  0.008333333728725667  0.9991353853296496  1.0000
