data_image0
_chemical_formula_structural       COCa3Al6Si6Ca3Al6Si6
_chemical_formula_sum              "C1 O1 Ca6 Al12 Si12"
_cell_length_a       8.289684337143335
_cell_length_b       11.070351741002698
_cell_length_c       103.47359466552734
_cell_angle_alpha    100.89339378311163
_cell_angle_beta     75.38197019899064
_cell_angle_gamma    67.57005993067115

_space_group_name_H-M_alt    "P 1"
_space_group_IT_number       1

loop_
  _space_group_symop_operation_xyz
  'x, y, z'

loop_
  _atom_site_type_symbol
  _atom_site_label
  _atom_site_symmetry_multiplicity
  _atom_site_fract_x
  _atom_site_fract_y
  _atom_site_fract_z
  _atom_site_occupancy
  C   C1        1.0  0.0017704405564808237  0.001690145741127774  5.484374806259985e-05  1.0000
  O   O1        1.0  0.0017704405564808237  0.001690145741127774  0.00017081559921442734  1.0000
  Ca  Ca1       1.0  0.0026904489940470402  0.002726630012199465  0.9995872243456432  1.0000
  Ca  Ca2       1.0  0.0031300823004718923  0.0058253557457952606  0.9998424325229642  1.0000
  Ca  Ca3       1.0  0.0027872948505962957  0.009453849284435411  0.9997221446585536  1.0000
  Al  Al1       1.0  0.006355081234349659  0.0002938880966639961  0.9996712494920129  1.0000
  Al  Al2       1.0  0.006601230013539752  0.003459043474058165  0.9999107369708354  1.0000
  Al  Al3       1.0  0.006397562665498819  0.0071869033699489895  0.9997928987965  1.0000
  Al  Al4       1.0  0.008989780052319948  0.0017379640935855846  0.9996420574252364  1.0000
  Al  Al5       1.0  0.00832627357046335  0.004919754386578284  0.9998440595232475  1.0000
  Al  Al6       1.0  0.00872372633375223  0.008445804035771134  0.9997702060896105  1.0000
  Si  Si1       1.0  5.197240148426704e-05  0.009161677806908911  0.999568492276284  1.0000
  Si  Si2       1.0  0.009948028206928996  0.0025349474277289318  0.9998501172799037  1.0000
  Si  Si3       1.0  0.00016514549968253713  0.0058690983600586015  0.9997113952632356  1.0000
  Si  Si4       1.0  0.0053063537636780156  0.002846356156394197  0.9997362256592369  1.0000
  Si  Si5       1.0  0.005328925570342079  0.006291582058423517  0.9996059564581983  1.0000
  Si  Si6       1.0  0.005323301879673447  0.009706111560782453  0.9998945240669569  1.0000
  Ca  Ca4       1.0  0.0026904489940470402  0.002726630012199465  0.9991828508054138  1.0000
  Ca  Ca5       1.0  0.0026904489940470402  0.006059963519160161  0.9994524331844382  1.0000
  Ca  Ca6       1.0  0.0026904489940470402  0.009393296340749691  0.999317642009376  1.0000
  Al  Al7       1.0  0.006391118560455128  0.0003819626337020663  0.9992628091205739  1.0000
  Al  Al8       1.0  0.006391118560455128  0.003715295626634388  0.9995323912011868  1.0000
  Al  Al9       1.0  0.006391118560455128  0.007048629133595084  0.9993976000399818  1.0000
  Al  Al10      1.0  0.008989780052319948  0.0017379640935855846  0.999237683885007  1.0000
  Al  Al11      1.0  0.008989780052319948  0.005071297257860697  0.9995072662571028  1.0000
  Al  Al12      1.0  0.008989780052319948  0.008404630764821393  0.9993724753839165  1.0000
  Si  Si7       1.0  5.197240148426704e-05  0.009161677806908911  0.9991641187360545  1.0000
  Si  Si8       1.0  5.197240148426704e-05  0.002495011135673103  0.9994337013534118  1.0000
  Si  Si9       1.0  5.197240148426704e-05  0.005828344299948216  0.9992989098972596  1.0000
  Si  Si10      1.0  0.005328925570342079  0.0029582488941484043  0.999336374374121  1.0000
  Si  Si11      1.0  0.005328925570342079  0.006291582058423517  0.9992015829179688  1.0000
  Si  Si12      1.0  0.005328925570342079  0.009624915565384213  0.9994711652969933  1.0000
