data_image0
_chemical_formula_structural       HSb16Rh8
_chemical_formula_sum              "H1 Sb16 Rh8"
_cell_length_a       6.741656260700602
_cell_length_b       9.551163118138085
_cell_length_c       31.79534912109375
_cell_angle_alpha    91.14856513184041
_cell_angle_beta     71.5077107402605
_cell_angle_gamma    108.49228721961612

_space_group_name_H-M_alt    "P 1"
_space_group_IT_number       1

loop_
  _space_group_symop_operation_xyz
  'x, y, z'

loop_
  _atom_site_type_symbol
  _atom_site_label
  _atom_site_symmetry_multiplicity
  _atom_site_fract_x
  _atom_site_fract_y
  _atom_site_fract_z
  _atom_site_occupancy
  H   H1        1.0  0.0038750491832419925  0.004905047041548003  0.00012069402924300422  1.0000
  Sb  Sb1       1.0  0.006588687306559904  0.007315449194430471  0.9969861837289077  1.0000
  Sb  Sb2       1.0  0.006588687552232508  0.002315449243982106  0.9984881584943942  1.0000
  Sb  Sb3       1.0  0.003368671361315344  0.0039647853472034224  0.9994679576903046  1.0000
  Sb  Sb4       1.0  0.0034827305929964283  0.00906898165125395  0.9979614061615193  1.0000
  Sb  Sb5       1.0  0.0034827309031516505  0.002683540266029122  0.9975452265945801  1.0000
  Sb  Sb6       1.0  0.0034515354665667227  0.00767342094661542  0.9990548638647183  1.0000
  Sb  Sb7       1.0  0.006588687096037199  0.00593000734672371  0.9980719791352543  1.0000
  Sb  Sb8       1.0  0.006316202124004843  0.0008030651385684403  0.9995800587994996  1.0000
  Sb  Sb9       1.0  0.008571433708821574  0.005026307739680073  0.9998438333092124  1.0000
  Sb  Sb10      1.0  0.00852854601488148  0.00995005350387412  0.9983716786162878  1.0000
  Sb  Sb11      1.0  0.001542871424829142  0.008681224410874658  0.9972508535214475  1.0000
  Sb  Sb12      1.0  0.0015428716905920427  0.0036812248733565905  0.9987528282880693  1.0000
  Sb  Sb13      1.0  0.001542871544812554  0.0050489350811732435  0.9976617066866976  1.0000
  Sb  Sb14      1.0  0.0014285664119248255  4.994574859300278e-05  0.9991823545262853  1.0000
  Sb  Sb15      1.0  0.00852854619625588  0.0013177647398872115  0.9972805568397618  1.0000
  Sb  Sb16      1.0  0.00852854619137162  0.006317764587103002  0.9987825317802242  1.0000
  Rh  Rh1       1.0  0.007373997568987992  0.0035671099340167777  0.9992129142744725  1.0000
  Rh  Rh2       1.0  0.007320678848263342  0.008565649350004107  0.9976980056451725  1.0000
  Rh  Rh3       1.0  0.002505008031412544  0.006239925161437908  0.999791878963448  1.0000
  Rh  Rh4       1.0  0.002750739198820542  0.0014386016683018267  0.9983369599145848  1.0000
  Rh  Rh5       1.0  0.002750739006526311  0.00643334006090385  0.9983353796429401  1.0000
  Rh  Rh6       1.0  0.0027474516376785603  0.0013954818349517736  0.9997907563296009  1.0000
  Rh  Rh7       1.0  0.007320678965232159  0.003560387841709401  0.997696425193982  1.0000
  Rh  Rh8       1.0  0.007361892607162439  0.008619558226158211  0.9991596688460994  1.0000
