data_image0
_chemical_formula_structural       COAu4Sn16
_chemical_formula_sum              "C1 O1 Au4 Sn16"
_cell_length_a       6.917362380550539
_cell_length_b       9.440832242606128
_cell_length_c       105.48320007324219
_cell_angle_alpha    82.64098495979705
_cell_angle_beta     88.57660429412344
_cell_angle_gamma    69.93945863476542

_space_group_name_H-M_alt    "P 1"
_space_group_IT_number       1

loop_
  _space_group_symop_operation_xyz
  'x, y, z'

loop_
  _atom_site_type_symbol
  _atom_site_label
  _atom_site_symmetry_multiplicity
  _atom_site_fract_x
  _atom_site_fract_y
  _atom_site_fract_z
  _atom_site_occupancy
  C   C1        1.0  0.008043853526534665  0.0016147608657730713  7.496417953433489e-05  1.0000
  O   O1        1.0  0.008043853526534665  0.0016147608657730713  0.00018872660151587184  1.0000
  Au  Au1       1.0  0.008866131808606625  0.00010514564965608832  0.9997897255678986  1.0000
  Au  Au2       1.0  0.001262241494603463  0.005087555284104037  0.9993763821271981  1.0000
  Au  Au3       1.0  0.0012622415160833953  8.75552494278021e-05  0.9993763820880063  1.0000
  Au  Au4       1.0  0.008936706306913761  0.005161812190879843  0.9997933891436316  1.0000
  Sn  Sn1       1.0  0.0068341792860633355  0.0033581878212499564  0.9996696361771219  1.0000
  Sn  Sn2       1.0  0.009363141436455193  0.008267453894291897  0.9992502748956117  1.0000
  Sn  Sn3       1.0  0.0023211653298412936  0.00358800835245821  0.9996438013408223  1.0000
  Sn  Sn4       1.0  0.004821165222973518  0.008588008420222455  0.999223317398195  1.0000
  Sn  Sn5       1.0  0.007703318122654726  0.006587102215749863  0.9995294470172995  1.0000
  Sn  Sn6       1.0  0.005341550440088926  0.001697417680130645  0.9999192047898647  1.0000
  Sn  Sn7       1.0  0.00613925886101653  0.008233520101531439  0.9998175911923777  1.0000
  Sn  Sn8       1.0  0.008525813354708594  0.0032320933846456843  0.999391108174393  1.0000
  Sn  Sn9       1.0  0.0015080339245994675  0.007008119352595581  0.9997821942790848  1.0000
  Sn  Sn10      1.0  0.003998669795236934  0.0019430171157981439  0.9993616558813337  1.0000
  Sn  Sn11      1.0  0.00233884552595868  0.00026266575490100833  0.999640827718405  1.0000
  Sn  Sn12      1.0  0.004838845468229376  0.00526266571678362  0.9992203437769115  1.0000
  Sn  Sn13      1.0  0.0054761689592664675  0.004987833421092548  0.9999338998141566  1.0000
  Sn  Sn14      1.0  0.007685637535244508  0.009912444495662167  0.9995324206439956  1.0000
  Sn  Sn15      1.0  0.003161341173910914  0.0069076571652069525  0.9995024892336938  1.0000
  Sn  Sn16      1.0  0.0006368579880463591  0.0020335603118179866  0.9998995237977087  1.0000
