data_image0
_chemical_formula_structural       HFe3Zn39
_chemical_formula_sum              "H1 Fe3 Zn39"
_cell_length_a       9.03460749255425
_cell_length_b       7.742918491363525
_cell_length_c       100.4225082397461
_cell_angle_alpha    90.0
_cell_angle_beta     86.40622329390956
_cell_angle_gamma    115.37331597775908

_space_group_name_H-M_alt    "P 1"
_space_group_IT_number       1

loop_
  _space_group_symop_operation_xyz
  'x, y, z'

loop_
  _atom_site_type_symbol
  _atom_site_label
  _atom_site_symmetry_multiplicity
  _atom_site_fract_x
  _atom_site_fract_y
  _atom_site_fract_z
  _atom_site_occupancy
  H   H1        1.0  0.003205519978882751  0.006363420784589717  6.304633804073263e-05  1.0000
  Fe  Fe1       1.0  0.008749153771505322  0.004136999580017235  0.9996231757044037  1.0000
  Fe  Fe2       1.0  0.004304708963125737  0.0019147771758274432  0.9992865704195624  1.0000
  Fe  Fe3       1.0  0.0033530747368160944  0.006437198163556389  0.9999399428929465  1.0000
  Zn  Zn1       1.0  0.0020824867876661304  0.00080366608809764  0.9991182674790825  1.0000
  Zn  Zn2       1.0  0.0009258738322024815  0.00522177281458848  0.9997996814025698  1.0000
  Zn  Zn3       1.0  0.006526931596045715  0.0030258884922874326  0.9994548730606931  1.0000
  Zn  Zn4       1.0  0.004977719172997137  0.007251282251294406  0.9995110913762446  1.0000
  Zn  Zn5       1.0  0.0005332744218000991  0.005029059875695887  0.9991744857943115  1.0000
  Zn  Zn6       1.0  0.00958221472683365  0.009553084027895013  0.9998848657432855  1.0000
  Zn  Zn7       1.0  0.0025013773033898267  0.0010105575039976674  0.9997391226612216  1.0000
  Zn  Zn8       1.0  0.00807614356163392  0.008800494445612797  0.9993986550444908  1.0000
  Zn  Zn9       1.0  0.0036316992107147082  0.006578272270153191  0.9990620494603003  1.0000
  Zn  Zn10      1.0  0.005774580831622846  0.002652202211026229  0.9997476660817168  1.0000
  Zn  Zn11      1.0  0.001276607327090812  0.00040072635780998077  0.9993946343642829  1.0000
  Zn  Zn12      1.0  0.006832163337565293  0.008178504333578482  0.9990580289145684  1.0000
  Zn  Zn13      1.0  0.0017772550461465529  0.005651050187869113  0.9995151119219766  1.0000
  Zn  Zn14      1.0  0.0073328107135257545  0.003428828051027452  0.9991785061774275  1.0000
  Zn  Zn15      1.0  0.006398110755269562  0.007956781327111433  0.9999096373283517  1.0000
  Zn  Zn16      1.0  0.0026360767386773214  0.008187551766768662  0.9992749740404739  1.0000
  Zn  Zn17      1.0  0.0015279927805946275  0.0029339353996239723  0.9999622915504772  1.0000
  Zn  Zn18      1.0  0.00708052131832672  0.00040977408546069815  0.9996115796233744  1.0000
  Zn  Zn19      1.0  0.004747732343317846  0.004133820110670605  0.9999735818474424  1.0000
  Zn  Zn20      1.0  0.00041778563456004345  0.0020784063494242526  0.9996347722457856  1.0000
  Zn  Zn21      1.0  0.005973341416304338  0.009856184105582172  0.9992981665005917  1.0000
  Zn  Zn22      1.0  0.004751264852311005  0.0001438160448192148  0.9999732063970369  1.0000
  Zn  Zn23      1.0  0.00041778563456004345  0.007864225095849706  0.9996347722457856  1.0000
  Zn  Zn24      1.0  0.005973341416304338  0.005642002640313839  0.9992981665005917  1.0000
  Zn  Zn25      1.0  0.0026360767386773214  0.003973370301500332  0.9992749740404739  1.0000
  Zn  Zn26      1.0  0.001530578232252499  0.008113688498639339  0.9999619980072632  1.0000
  Zn  Zn27      1.0  0.00708052131832672  0.00619559259132503  0.9996115796233744  1.0000
  Zn  Zn28      1.0  0.003685051898989002  0.009801129302742548  0.9995056576667547  1.0000
  Zn  Zn29      1.0  0.009240608023828575  0.007578907499876563  0.9991690522163953  1.0000
  Zn  Zn30      1.0  0.00820809526119655  0.0018991582177386118  0.9998472701800237  1.0000
  Zn  Zn31      1.0  0.0038950481678690137  0.004955788528517446  0.9997356828823677  1.0000
  Zn  Zn32      1.0  0.009368811293102429  0.0026430090286665964  0.9994040884546316  1.0000
  Zn  Zn33      1.0  0.004924366484722844  0.0004207866244768043  0.9990674828730209  1.0000
  Zn  Zn34      1.0  0.003901288842264853  0.008459675535931301  0.999735601987122  1.0000
  Zn  Zn35      1.0  0.009368811293102429  0.006250647743175402  0.9994040884546316  1.0000
  Zn  Zn36      1.0  0.004924366484722844  0.004028425338985609  0.9990674828730209  1.0000
  Zn  Zn37      1.0  0.003685051898989002  0.0034087680461186882  0.9995056576667547  1.0000
  Zn  Zn38      1.0  0.009240608023828575  0.0011865461229721432  0.9991690522163953  1.0000
  Zn  Zn39      1.0  0.008212640587453482  0.0058355697329845425  0.9998472409865292  1.0000
