data_image0
_chemical_formula_structural       HCu6Ir6Zn12
_chemical_formula_sum              "H1 Cu6 Ir6 Zn12"
_cell_length_a       6.07587194442749
_cell_length_b       7.441392969554932
_cell_length_c       102.71957397460938
_cell_angle_alpha    94.34775314739986
_cell_angle_beta     90.0
_cell_angle_gamma    114.09484266785839

_space_group_name_H-M_alt    "P 1"
_space_group_IT_number       1

loop_
  _space_group_symop_operation_xyz
  'x, y, z'

loop_
  _atom_site_type_symbol
  _atom_site_label
  _atom_site_symmetry_multiplicity
  _atom_site_fract_x
  _atom_site_fract_y
  _atom_site_fract_z
  _atom_site_occupancy
  H   H1        1.0  0.0037363598839869577  0.002045607263621194  0.00013065246778807808  1.0000
  Cu  Cu1       1.0  0.006994284141937377  0.003566049509977946  0.9997660339818382  1.0000
  Cu  Cu2       1.0  0.0028422778421443346  0.005256825741134805  0.9994999911088789  1.0000
  Cu  Cu3       1.0  0.0010833319037313182  0.0017424119507304812  9.684128194528983e-06  1.0000
  Cu  Cu4       1.0  0.009925611387007004  0.009423492407801472  0.9996327130081278  1.0000
  Cu  Cu5       1.0  0.005758944754734066  0.0010901591432555978  0.9993672689198749  1.0000
  Cu  Cu6       1.0  0.0040894962695037385  0.007742530496287547  0.9999054036300211  1.0000
  Ir  Ir1       1.0  0.0020274510710550724  0.003620483503424361  0.9997705352146407  1.0000
  Ir  Ir2       1.0  0.007842278053673669  0.005256825741134805  0.9994999911088789  1.0000
  Ir  Ir3       1.0  0.006176909060035149  0.001923844929776478  1.0565656048663279e-05  1.0000
  Ir  Ir4       1.0  0.004925611137157136  0.009423492407801472  0.9996327130081278  1.0000
  Ir  Ir5       1.0  0.0007589446006855286  0.0010901591432555978  0.9993672689198749  1.0000
  Ir  Ir6       1.0  0.009081076062984712  0.007733112117264372  0.9998947463887039  1.0000
  Zn  Zn1       1.0  0.0018006113497644994  0.00817349273798128  0.9994336301320546  1.0000
  Zn  Zn2       1.0  7.438881879036382e-05  0.0049056431955488596  0.9999755740964532  1.0000
  Zn  Zn3       1.0  0.005967277943007342  0.0065068259612546765  0.9996990742781073  1.0000
  Zn  Zn4       1.0  0.005266068302425223  0.004906141767058938  0.9999756505283249  1.0000
  Zn  Zn5       1.0  0.0009672779614011977  0.0065068259612546765  0.9996990742781073  1.0000
  Zn  Zn6       1.0  0.006800611331370644  0.00817349273798128  0.9994336301320546  1.0000
  Zn  Zn7       1.0  0.008883944437998028  0.00234015929458801  0.9995663520887256  1.0000
  Zn  Zn8       1.0  0.004717277860462391  0.0040068257961647724  0.9993009079411617  1.0000
  Zn  Zn9       1.0  0.003027868557634687  0.0005765074615023552  0.9998288288030577  1.0000
  Zn  Zn10      1.0  0.00971727768878641  0.0040068257961647724  0.9993009079411617  1.0000
  Zn  Zn11      1.0  0.007977624600183331  0.0005794945225591172  0.9998287651311757  1.0000
  Zn  Zn12      1.0  0.0038839446096740095  0.00234015929458801  0.9995663520887256  1.0000
