data_image0
_chemical_formula_structural       COCa12Ga20Ca12Ga20
_chemical_formula_sum              "C1 O1 Ca24 Ga40"
_cell_length_a       10.998696327209473
_cell_length_b       15.265317916870117
_cell_length_c       101.76583099365234
_cell_angle_alpha    90.0
_cell_angle_beta     90.0
_cell_angle_gamma    90.0

_space_group_name_H-M_alt    "P 1"
_space_group_IT_number       1

loop_
  _space_group_symop_operation_xyz
  'x, y, z'

loop_
  _atom_site_type_symbol
  _atom_site_label
  _atom_site_symmetry_multiplicity
  _atom_site_fract_x
  _atom_site_fract_y
  _atom_site_fract_z
  _atom_site_occupancy
  C   C1        1.0  0.00500001208491933  0.005000012963203369  0.0001541502397806195  1.0000
  O   O1        1.0  0.00500001208491933  0.005000012963203369  0.00027206825019261693  1.0000
  Ca  Ca1       1.0  0.006303208057266086  0.00750001261179123  0.999310716993139  1.0000
  Ca  Ca2       1.0  0.008696811262347103  0.0025000130705793012  0.9995336786563911  1.0000
  Ca  Ca3       1.0  0.005881408470143291  0.0011000910661132118  0.9995336786563911  1.0000
  Ca  Ca4       1.0  0.00911861152687569  0.008899935104329735  0.999310716993139  1.0000
  Ca  Ca5       1.0  0.00911861152687569  0.006100091095397557  0.999310716993139  1.0000
  Ca  Ca6       1.0  0.005881408470143291  0.0038999348310091823  0.9995336786563911  1.0000
  Ca  Ca7       1.0  0.0013032082503267371  0.00750001261179123  0.9995336786563911  1.0000
  Ca  Ca8       1.0  0.003696811709434925  0.0025000130705793012  0.999310716993139  1.0000
  Ca  Ca9       1.0  0.0008814085785282176  0.0011000910661132118  0.999310716993139  1.0000
  Ca  Ca10      1.0  0.0041186112965577205  0.008899935104329735  0.9995336786563911  1.0000
  Ca  Ca11      1.0  0.0041186112965577205  0.006100091095397557  0.9995336786563911  1.0000
  Ca  Ca12      1.0  0.0008814085785282176  0.0038999348310091823  0.999310716993139  1.0000
  Ga  Ga1       1.0  0.008379716256282315  0.00750001261179123  0.9995336786563911  1.0000
  Ga  Ga2       1.0  0.006620303063330873  0.0025000130705793012  0.999310716993139  1.0000
  Ga  Ga3       1.0  0.007922019581427818  0.00400336835759212  0.999310716993139  1.0000
  Ga  Ga4       1.0  0.00707799973818537  0.005996657324778411  0.9995336786563911  1.0000
  Ga  Ga5       1.0  0.00707799973818537  0.009003368386876466  0.9995336786563911  1.0000
  Ga  Ga6       1.0  0.007922019581427818  0.0009966575395302735  0.999310716993139  1.0000
  Ga  Ga7       1.0  0.006150847978738172  0.005339980780723448  0.999310716993139  1.0000
  Ga  Ga8       1.0  0.008849171340875017  0.004660045145683291  0.9995336786563911  1.0000
  Ga  Ga9       1.0  0.008849171340875017  0.00033998102597983704  0.9995336786563911  1.0000
  Ga  Ga10      1.0  0.006150847978738172  0.009660044442859013  0.999310716993139  1.0000
  Ga  Ga11      1.0  0.0033797167033701382  0.00750001261179123  0.999310716993139  1.0000
  Ga  Ga12      1.0  0.001620303341067248  0.0025000130705793012  0.9995336786563911  1.0000
  Ga  Ga13      1.0  0.0029220200285156404  0.00400336835759212  0.9995336786563911  1.0000
  Ga  Ga14      1.0  0.0020780001852731935  0.005996657324778411  0.999310716993139  1.0000
  Ga  Ga15      1.0  0.0020780001852731935  0.009003368386876466  0.999310716993139  1.0000
  Ga  Ga16      1.0  0.0029220200285156404  0.0009966575395302735  0.9995336786563911  1.0000
  Ga  Ga17      1.0  0.001150848425825995  0.005339980780723448  0.9995336786563911  1.0000
  Ga  Ga18      1.0  0.0038491714492599432  0.004660045145683291  0.999310716993139  1.0000
  Ga  Ga19      1.0  0.0038491714492599432  0.00033998102597983704  0.999310716993139  1.0000
  Ga  Ga20      1.0  0.001150848425825995  0.009660044442859013  0.9995336786563911  1.0000
  Ca  Ca13      1.0  0.006232677921010626  0.007500105345550273  0.9997591409824726  1.0000
  Ca  Ca14      1.0  0.008829829373294943  0.002499969632134276  0.9999829747588418  1.0000
  Ca  Ca15      1.0  0.005932632541325655  0.0010131908095956255  0.9999839124707963  1.0000
  Ca  Ca16      1.0  0.00914834693152301  0.00890219780805038  0.9997609174224215  1.0000
  Ca  Ca17      1.0  0.00914840993026167  0.0060978200944458395  0.9997609109796786  1.0000
  Ca  Ca18      1.0  0.005932745668092925  0.003986950821698416  0.9999839517129581  1.0000
  Ca  Ca19      1.0  0.0011701678696634838  0.007500052145656928  0.999982979444473  1.0000
  Ca  Ca20      1.0  0.00376734828104541  0.002499922289109922  0.9997591421538805  1.0000
  Ca  Ca21      1.0  0.0008516966290564468  0.0010978249458856542  0.9997609215223489  1.0000
  Ca  Ca22      1.0  0.004067418047338894  0.008986814922814902  0.999983914227908  1.0000
  Ca  Ca23      1.0  0.0040672788404486305  0.0060130746166359075  0.9999839499558464  1.0000
  Ca  Ca24      1.0  0.0008515893449141327  0.0039022180337713003  0.9997609103939746  1.0000
  Ga  Ga21      1.0  0.008274263141824103  0.007500011635646398  0.9999726892125373  1.0000
  Ga  Ga22      1.0  0.006681239101353693  0.002500140457479881  0.9997691172771145  1.0000
  Ga  Ga23      1.0  0.007953856298842042  0.004069370146373621  0.9997636760878218  1.0000
  Ga  Ga24      1.0  0.0070349025042900915  0.005957017059294504  0.9999927560140827  1.0000
  Ga  Ga25      1.0  0.007034674218538175  0.009043263426161532  0.9999926675727928  1.0000
  Ga  Ga26      1.0  0.007953793977509173  0.0009306024288373238  0.999763687216196  1.0000
  Ga  Ga27      1.0  0.0061761856649835785  0.005369991865511794  0.9997590695265961  1.0000
  Ga  Ga28      1.0  0.008801581551766939  0.004702545027452629  0.9999999701291008  1.0000
  Ga  Ga29      1.0  0.008801654034186687  0.0002975011551795557  0.9999999941429609  1.0000
  Ga  Ga30      1.0  0.006175415454598031  0.009629930374790888  0.9997589763996749  1.0000
  Ga  Ga31      1.0  0.0033187657624198937  0.007499891569832058  0.9997691207913378  1.0000
  Ga  Ga32      1.0  0.0017257635682862756  0.002500046015467382  0.999972690969649  1.0000
  Ga  Ga33      1.0  0.0029651331814470323  0.004043022777176091  0.9999927589426022  1.0000
  Ga  Ga34      1.0  0.0020461345087613605  0.005930655780033119  0.9997636755021179  1.0000
  Ga  Ga35      1.0  0.002046234256764238  0.009069441678266912  0.9997636901447156  1.0000
  Ga  Ga36      1.0  0.0029653679025539734  0.0009567707974762799  0.9999926751869436  1.0000
  Ga  Ga37      1.0  0.0011984252595483  0.005297470649433374  0.999999968371989  1.0000
  Ga  Ga38      1.0  0.003823820892304488  0.004630020394867296  0.9997590701122999  1.0000
  Ga  Ga39      1.0  0.003824611086160901  0.0003701093396616048  0.9997589804996022  1.0000
  Ga  Ga40      1.0  0.0011984179774360358  0.00970249893389366  0.0  1.0000
