data_image0
_chemical_formula_structural       HSi4Pd12Si4Pd12
_chemical_formula_sum              "H1 Si8 Pd24"
_cell_length_a       5.892986297607422
_cell_length_b       7.674193859100342
_cell_length_c       102.23316192626953
_cell_angle_alpha    90.0
_cell_angle_beta     90.0
_cell_angle_gamma    90.0

_space_group_name_H-M_alt    "P 1"
_space_group_IT_number       1

loop_
  _space_group_symop_operation_xyz
  'x, y, z'

loop_
  _atom_site_type_symbol
  _atom_site_label
  _atom_site_symmetry_multiplicity
  _atom_site_fract_x
  _atom_site_fract_y
  _atom_site_fract_z
  _atom_site_occupancy
  H   H1        1.0  0.004330083198689031  0.005490557154827923  8.510263225746749e-05  1.0000
  Si  Si1       1.0  0.0010349941587211155  0.007504028609879576  0.9990420973366976  1.0000
  Si  Si2       1.0  0.003953947165199335  0.002504028920555307  0.9993048396961582  1.0000
  Si  Si3       1.0  0.006034994430548462  0.007504028609879576  0.9992730090717061  1.0000
  Si  Si4       1.0  0.008953947278987526  0.002504028920555307  0.9995357511396536  1.0000
  Pd  Pd1       1.0  0.008197972038529308  0.009486394142743446  0.9991197675468595  1.0000
  Pd  Pd2       1.0  0.0067909690388500595  0.000521662962939461  0.9993825099063203  1.0000
  Pd  Pd3       1.0  0.003197971924741117  0.005521663077015707  0.9991953388615442  1.0000
  Pd  Pd4       1.0  0.0017909693991793331  0.004486394453419177  0.9994580809294916  1.0000
  Pd  Pd5       1.0  6.178089857370447e-05  0.002504028920555307  0.9992377278047867  1.0000
  Pd  Pd6       1.0  0.0049271604994276  0.007504028609879576  0.9995004698727342  1.0000
  Pd  Pd7       1.0  0.005061780780241887  0.002504028920555307  0.999077378603617  1.0000
  Pd  Pd8       1.0  0.009927160613215791  0.007504028609879576  0.9993401209630777  1.0000
  Pd  Pd9       1.0  0.008197972038529308  0.005521663077015707  0.9991197675468595  1.0000
  Pd  Pd10      1.0  0.0067909690388500595  0.004486394453419177  0.9993825099063203  1.0000
  Pd  Pd11      1.0  0.003197971924741117  0.009486394142743446  0.9991953388615442  1.0000
  Pd  Pd12      1.0  0.0017909693991793331  0.000521662962939461  0.9994580809294916  1.0000
  Si  Si5       1.0  0.0010349941587211155  0.007504028609879576  0.999567582055619  1.0000
  Si  Si6       1.0  0.003974706872515473  0.0025038306220610466  0.999830880330868  1.0000
  Si  Si7       1.0  0.006128359538197552  0.007504542195698248  0.9997999122941543  1.0000
  Si  Si8       1.0  0.009071941840700901  0.0025029044200364473  2.8174756649394153e-05  1.0000
  Pd  Pd13      1.0  0.008197972038529308  0.009486394142743446  0.9996452522657809  1.0000
  Pd  Pd14      1.0  0.0067530535491073015  0.0005136052359050925  0.9999157206011908  1.0000
  Pd  Pd15      1.0  0.003197971924741117  0.005521663077015707  0.9997208235804657  1.0000
  Pd  Pd16      1.0  0.0018915739644384492  0.004474227129652626  0.999978017568035  1.0000
  Pd  Pd17      1.0  6.178089857370447e-05  0.002504028920555307  0.9997632119406816  1.0000
  Pd  Pd18      1.0  0.004345961392587022  0.007503938805175933  0.0  1.0000
  Pd  Pd19      1.0  0.005061780780241887  0.002504028920555307  0.9996028633225384  1.0000
  Pd  Pd20      1.0  0.009938218928966068  0.007504123268891524  0.9998681258141382  1.0000
  Pd  Pd21      1.0  0.008197972038529308  0.005521663077015707  0.9996452522657809  1.0000
  Pd  Pd22      1.0  0.006752714081002465  0.004493504558793549  0.9999157497525168  1.0000
  Pd  Pd23      1.0  0.003197971924741117  0.009486394142743446  0.9997208235804657  1.0000
  Pd  Pd24      1.0  0.0018947600338022742  0.0005348477497267452  0.9999781347563658  1.0000
