data_image0
_chemical_formula_structural       COPd9V3Pd9V3
_chemical_formula_sum              "C1 O1 Pd18 V6"
_cell_length_a       7.7903313636779785
_cell_length_b       4.80472766636359
_cell_length_c       101.48700714111328
_cell_angle_alpha    93.37027169973344
_cell_angle_beta     90.0
_cell_angle_gamma    113.91288545359849

_space_group_name_H-M_alt    "P 1"
_space_group_IT_number       1

loop_
  _space_group_symop_operation_xyz
  'x, y, z'

loop_
  _atom_site_type_symbol
  _atom_site_label
  _atom_site_symmetry_multiplicity
  _atom_site_fract_x
  _atom_site_fract_y
  _atom_site_fract_z
  _atom_site_occupancy
  C   C1        1.0  0.002309384406792403  0.009454701725451441  0.00012262050616072432  1.0000
  O   O1        1.0  0.002309384406792403  0.009454701725451441  0.00024086189539949517  1.0000
  Pd  Pd1       1.0  0.0006380125623017991  0.0027675199415029663  0.999316340339562  1.0000
  Pd  Pd2       1.0  0.0025824571623087613  0.0005452978878441876  0.9991439757264982  1.0000
  Pd  Pd3       1.0  0.0010546793193757901  0.0044341868801375415  0.9990577932203331  1.0000
  Pd  Pd4       1.0  0.0017491237169677447  0.007211964261295453  0.9996610698599375  1.0000
  Pd  Pd5       1.0  0.0036935682156975166  0.0049897421013992095  0.9994887049529215  1.0000
  Pd  Pd6       1.0  0.0021657903993239115  0.008878631199930027  0.9994025227407086  1.0000
  Pd  Pd7       1.0  0.003172793495541484  0.0029110665159665285  8.102187037926923e-06  1.0000
  Pd  Pd8       1.0  0.004778653987501135  0.009323574098091862  0.9998611208900583  1.0000
  Pd  Pd9       1.0  0.0032482923131830583  0.0032058506198855753  0.999744632351004  1.0000
  V   V1        1.0  0.004110234950356161  0.006656409040033785  0.999230158127349  1.0000
  V   V2        1.0  0.00022134598244720528  0.0011008534278182484  0.9995748874599737  1.0000
  V   V3        1.0  0.001318916140785058  0.005490100160749352  0.9998950960271742  1.0000
  Pd  Pd10      1.0  0.005638012494009708  0.0027675199415029663  0.999316340339562  1.0000
  Pd  Pd11      1.0  0.007582457037978302  0.0005452978878441876  0.9991439757264982  1.0000
  Pd  Pd12      1.0  0.006054679228668352  0.0044341868801375415  0.9990577932203331  1.0000
  Pd  Pd13      1.0  0.006749123573957829  0.007211964261295453  0.9996610698599375  1.0000
  Pd  Pd14      1.0  0.008693568091367057  0.0049897421013992095  0.9994887049529215  1.0000
  Pd  Pd15      1.0  0.0071657903086164735  0.008878631199930027  0.9994025227407086  1.0000
  Pd  Pd16      1.0  0.00817279361030806  0.0029110665159665285  8.102187037926923e-06  1.0000
  Pd  Pd17      1.0  0.009778653863170674  0.009323574098091862  0.9998611208900583  1.0000
  Pd  Pd18      1.0  0.008248291949755562  0.0032058506198855753  0.999744632351004  1.0000
  V   V4        1.0  0.009110234826025701  0.006656409040033785  0.999230158127349  1.0000
  V   V5        1.0  0.0052213458655885284  0.0011008534278182484  0.9995748874599737  1.0000
  V   V6        1.0  0.006318916251815744  0.005490100160749352  0.9998950960271742  1.0000
