data_image0
_chemical_formula_structural       HZn12Cu6Au6
_chemical_formula_sum              "H1 Zn12 Cu6 Au6"
_cell_length_a       7.234690634390516
_cell_length_b       6.578917380091547
_cell_length_c       104.61705017089844
_cell_angle_alpha    91.84075610693188
_cell_angle_beta     100.01411989086601
_cell_angle_gamma    64.18503318495588

_space_group_name_H-M_alt    "P 1"
_space_group_IT_number       1

loop_
  _space_group_symop_operation_xyz
  'x, y, z'

loop_
  _atom_site_type_symbol
  _atom_site_label
  _atom_site_symmetry_multiplicity
  _atom_site_fract_x
  _atom_site_fract_y
  _atom_site_fract_z
  _atom_site_occupancy
  H   H1        1.0  0.006710120652507342  0.00913445172270689  7.824835860931294e-05  1.0000
  Zn  Zn1       1.0  0.008286646723643333  0.0020577947554827215  0.9993007430041857  1.0000
  Zn  Zn2       1.0  0.0016199805258570103  0.005391127572332893  0.9995764869774039  1.0000
  Zn  Zn3       1.0  0.004977349312800286  0.008741305605954241  0.9998432320129892  1.0000
  Zn  Zn4       1.0  0.004958400928053859  0.0037219175052608747  0.9994384046747101  1.0000
  Zn  Zn5       1.0  0.00829173446288949  0.007055250154038971  0.9997141487583218  1.0000
  Zn  Zn6       1.0  0.001249467935122386  0.0007362380370249867  1.8997010126901404e-05  1.0000
  Zn  Zn7       1.0  0.008745444203567565  0.0011401996785066948  0.9997523126612332  1.0000
  Zn  Zn8       1.0  0.0019593335473349727  0.004529254169208239  3.271056689863573e-05  1.0000
  Zn  Zn9       1.0  0.005412111249988561  0.007806866414743777  0.999476568385384  1.0000
  Zn  Zn10      1.0  0.0020838653090849315  0.009470988666748215  0.9996142300531554  1.0000
  Zn  Zn11      1.0  0.005538883901345369  0.0028911788691537185  0.9999018285404607  1.0000
  Zn  Zn12      1.0  0.008750531942813722  0.006137656210141066  0.9993384858010367  1.0000
  Cu  Cu1       1.0  0.008731841054752552  0.0036712222425609575  0.9995440634392212  1.0000
  Cu  Cu2       1.0  0.0018950676350674856  0.007052449752727869  0.9998115133691567  1.0000
  Cu  Cu3       1.0  0.0050041603559247295  0.0004217782349964093  6.23130580586203e-05  1.0000
  Cu  Cu4       1.0  0.004972004658125499  0.0011908949494147585  0.9996466539037284  1.0000
  Cu  Cu5       1.0  0.008270233780298909  0.004674557887112436  0.9999249271020887  1.0000
  Cu  Cu6       1.0  0.001638671268604025  0.007857561608678348  0.9993709096224814  1.0000
  Au  Au1       1.0  0.008278341147716412  0.009578221478674353  0.9995065484051554  1.0000
  Au  Au2       1.0  0.0016116743686734633  0.002911555477048407  0.9997822925717555  1.0000
  Au  Au3       1.0  0.004500338447133026  0.006580924143745525  3.931551711797376e-05  1.0000
  Au  Au4       1.0  0.005425504565161639  0.005283895090108395  0.9996841687385503  1.0000
  Au  Au5       1.0  0.008707967682615208  0.008672332171660866  0.9999676018634405  1.0000
  Au  Au6       1.0  0.002092171320954322  0.0019505614539910147  0.9994084246564391  1.0000
