data_image0
_chemical_formula_structural       COCa8Zn8
_chemical_formula_sum              "C1 O1 Ca8 Zn8"
_cell_length_a       6.201676470128675
_cell_length_b       6.211884785654732
_cell_length_c       106.20103454589844
_cell_angle_alpha    94.65364074749222
_cell_angle_beta     92.48323073047845
_cell_angle_gamma    104.42862523194385

_space_group_name_H-M_alt    "P 1"
_space_group_IT_number       1

loop_
  _space_group_symop_operation_xyz
  'x, y, z'

loop_
  _atom_site_type_symbol
  _atom_site_label
  _atom_site_symmetry_multiplicity
  _atom_site_fract_x
  _atom_site_fract_y
  _atom_site_fract_z
  _atom_site_occupancy
  C   C1        1.0  0.002107118718028847  0.005041915176960144  0.00011008486204212327  1.0000
  O   O1        1.0  0.002107118718028847  0.005041915176960144  0.00022307834058972483  1.0000
  Ca  Ca1       1.0  0.008576888406693552  0.00610505222246914  0.9997460164170471  1.0000
  Ca  Ca2       1.0  0.0003084818039611781  0.0019466928562960175  1.0018635188634647e-05  1.0000
  Ca  Ca3       1.0  0.004736787120761562  0.0002252629107208887  0.9997919219355378  1.0000
  Ca  Ca4       1.0  0.0030897778275659695  0.004403435844677454  0.9995211502619077  1.0000
  Ca  Ca5       1.0  0.005243555329622777  0.004438385365040735  0.9991778950149449  1.0000
  Ca  Ca6       1.0  0.006910221748877639  0.00027171851305525903  0.9994619554786398  1.0000
  Ca  Ca7       1.0  0.0014231112493549008  0.008570102366199319  0.9992370897962424  1.0000
  Ca  Ca8       1.0  0.009756444318297959  0.002736769298273622  0.9989530290678481  1.0000
  Zn  Zn1       1.0  0.0033690016692239123  0.004911859940289652  0.9998271249177308  1.0000
  Zn  Zn2       1.0  0.00160982957225544  0.009067084178756185  0.9995440812750789  1.0000
  Zn  Zn3       1.0  5.68372087932016e-05  0.0014414037328781223  0.9997230857581046  1.0000
  Zn  Zn4       1.0  0.0020731105038025543  0.0074428242779034535  1.1505314758808012e-06  1.0000
  Zn  Zn5       1.0  0.009943162408301755  0.003233750488781339  0.9992600205431434  1.0000
  Zn  Zn6       1.0  0.008276495984117524  0.007400417321327779  0.9989759597987221  1.0000
  Zn  Zn7       1.0  0.006723503734765715  0.009774737242458715  0.999154964474601  1.0000
  Zn  Zn8       1.0  0.008390170158949946  0.005608070409912275  0.9994390252190224  1.0000
