data_image0
_chemical_formula_structural       COMn4Al4Ge4Mn4Al4Ge4
_chemical_formula_sum              "C1 O1 Mn8 Al8 Ge8"
_cell_length_a       5.919036865234375
_cell_length_b       5.483386993408203
_cell_length_c       102.90032196044922
_cell_angle_alpha    90.0
_cell_angle_beta     90.0
_cell_angle_gamma    90.0

_space_group_name_H-M_alt    "P 1"
_space_group_IT_number       1

loop_
  _space_group_symop_operation_xyz
  'x, y, z'

loop_
  _atom_site_type_symbol
  _atom_site_label
  _atom_site_symmetry_multiplicity
  _atom_site_fract_x
  _atom_site_fract_y
  _atom_site_fract_z
  _atom_site_occupancy
  C   C1        1.0  0.0014031559324932008  0.008749698003069004  7.190128087420577e-05  1.0000
  O   O1        1.0  0.0014031559324932008  0.008749698003069004  0.0001885192281271541  1.0000
  Mn  Mn1       1.0  0.0014029679068900487  0.006249743331142512  0.9995214630869694  1.0000
  Mn  Mn2       1.0  0.0014029679068900487  0.0012497431205354564  0.9992550216008874  1.0000
  Mn  Mn3       1.0  0.0014029679068900487  0.006249743331142512  0.9992550216008874  1.0000
  Mn  Mn4       1.0  0.0014029679068900487  0.0012497431205354564  0.9995214630869694  1.0000
  Al  Al1       1.0  0.004345822391449531  0.0037497431409167846  0.9991218007130348  1.0000
  Al  Al2       1.0  0.004345822391449531  0.008749743521368241  0.99938824248874  1.0000
  Al  Al3       1.0  0.008460113674080328  0.008749743521368241  0.9991218007130348  1.0000
  Al  Al4       1.0  0.008460113674080328  0.0037497431409167846  0.99938824248874  1.0000
  Ge  Ge1       1.0  0.004208903563326545  0.008749743521368241  0.9991218007130348  1.0000
  Ge  Ge2       1.0  0.004208903563326545  0.0037497431409167846  0.99938824248874  1.0000
  Ge  Ge3       1.0  0.008597032187516113  0.0037497431409167846  0.9991218007130348  1.0000
  Ge  Ge4       1.0  0.008597032187516113  0.008749743521368241  0.99938824248874  1.0000
  Mn  Mn5       1.0  0.001403295496267256  0.006249556502302362  0.0  1.0000
  Mn  Mn6       1.0  0.0014030165260627465  0.0012498384881661335  0.9998071566972269  1.0000
  Mn  Mn7       1.0  0.0014030434318185116  0.006249552426036758  0.9998070118856178  1.0000
  Mn  Mn8       1.0  0.001403181736843759  0.001249975297830444  0.9999999889943177  1.0000
  Al  Al5       1.0  0.004345822391449531  0.0037497431409167846  0.999654683974822  1.0000
  Al  Al6       1.0  0.004432857004322846  0.008749901816349168  0.9999216679251915  1.0000
  Al  Al7       1.0  0.008460113674080328  0.008749743521368241  0.999654683974822  1.0000
  Al  Al8       1.0  0.008373986933784577  0.003749517587553402  0.9999216812478595  1.0000
  Ge  Ge5       1.0  0.004208903563326545  0.008749743521368241  0.999654683974822  1.0000
  Ge  Ge6       1.0  0.004410063580912777  0.003749684374754337  0.9999313175915715  1.0000
  Ge  Ge7       1.0  0.008597032187516113  0.0037497431409167846  0.999654683974822  1.0000
  Ge  Ge8       1.0  0.008395298180473564  0.008750257130834256  0.9999313013726713  1.0000
