data_image0
_chemical_formula_structural       COMn4Ga4Ge4Mn4Ga4Ge4
_chemical_formula_sum              "C1 O1 Mn8 Ga8 Ge8"
_cell_length_a       5.873992443084717
_cell_length_b       5.54559850692749
_cell_length_c       103.27359008789062
_cell_angle_alpha    90.0
_cell_angle_beta     90.0
_cell_angle_gamma    90.0

_space_group_name_H-M_alt    "P 1"
_space_group_IT_number       1

loop_
  _space_group_symop_operation_xyz
  'x, y, z'

loop_
  _atom_site_type_symbol
  _atom_site_label
  _atom_site_symmetry_multiplicity
  _atom_site_fract_x
  _atom_site_fract_y
  _atom_site_fract_z
  _atom_site_occupancy
  C   C1        1.0  0.009999995941115324  0.0025000027474829456  0.00016765019972997004  1.0000
  O   O1        1.0  0.009999995941115324  0.0025000027474829456  0.00028384664751959847  1.0000
  Mn  Mn1       1.0  3.650000069963984e-09  0.005000003143819116  0.9992569258316505  1.0000
  Mn  Mn2       1.0  3.650000069963984e-09  3.399999989758899e-09  0.9995254164624008  1.0000
  Mn  Mn3       1.0  3.650000069963984e-09  0.005000003143819116  0.9995254164624008  1.0000
  Mn  Mn4       1.0  3.650000069963984e-09  3.399999989758899e-09  0.9992569258316505  1.0000
  Ga  Ga1       1.0  0.002962274556861118  0.0025000032513001116  0.9991226803719871  1.0000
  Ga  Ga2       1.0  0.002962274556861118  0.007500003036338121  0.9993911710027373  1.0000
  Ga  Ga3       1.0  0.00703773248276699  0.007500003036338121  0.9991226803719871  1.0000
  Ga  Ga4       1.0  0.00703773248276699  0.0025000032513001116  0.9993911710027373  1.0000
  Ge  Ge1       1.0  0.007190530464770707  0.0025000032513001116  0.9991226803719871  1.0000
  Ge  Ge2       1.0  0.007190530464770707  0.007500003036338121  0.9993911710027373  1.0000
  Ge  Ge3       1.0  0.0028094768919577663  0.007500003036338121  0.9991226803719871  1.0000
  Ge  Ge4       1.0  0.0028094768919577663  0.0025000032513001116  0.9993911710027373  1.0000
  Mn  Mn5       1.0  8.850000186209137e-09  0.00500000952550322  0.9998095638065447  1.0000
  Mn  Mn6       1.0  0.009999996575316054  1.5299999793755883e-08  0.999999871294919  1.0000
  Mn  Mn7       1.0  0.009999995306914594  0.004999990044572799  0.0  1.0000
  Mn  Mn8       1.0  9.450000106572663e-09  0.009999996211294911  0.9998095851611994  1.0000
  Ga  Ga5       1.0  0.002962274556861118  0.0025000032513001116  0.9996596616334876  1.0000
  Ga  Ga6       1.0  0.0030634625518167363  0.007499925784372659  0.9999401071193805  1.0000
  Ga  Ga7       1.0  0.00703773248276699  0.007500003036338121  0.9996596616334876  1.0000
  Ga  Ga8       1.0  0.006936538780004797  0.0025000781521187987  0.9999401001935466  1.0000
  Ge  Ge5       1.0  0.007190530464770707  0.0025000032513001116  0.9996596616334876  1.0000
  Ge  Ge6       1.0  0.007008089306421845  0.007499234547220829  0.9999328904003952  1.0000
  Ge  Ge7       1.0  0.0028094768919577663  0.007500003036338121  0.9996596616334876  1.0000
  Ge  Ge8       1.0  0.0029919196358084545  0.002500770900722126  0.9999328898232424  1.0000
