data_image0
_chemical_formula_structural       HSi15As20
_chemical_formula_sum              "H1 Si15 As20"
_cell_length_a       7.6473517417907715
_cell_length_b       12.09152530197886
_cell_length_c       107.46421813964844
_cell_angle_alpha    75.03678291528288
_cell_angle_beta     90.0
_cell_angle_gamma    71.56505199166135

_space_group_name_H-M_alt    "P 1"
_space_group_IT_number       1

loop_
  _space_group_symop_operation_xyz
  'x, y, z'

loop_
  _atom_site_type_symbol
  _atom_site_label
  _atom_site_symmetry_multiplicity
  _atom_site_fract_x
  _atom_site_fract_y
  _atom_site_fract_z
  _atom_site_occupancy
  H   H1        1.0  0.005107631498119117  0.009967103161441015  0.9999664618262033  1.0000
  Si  Si1       1.0  0.007073423573779587  0.00603289627696432  0.9992718547760813  1.0000
  Si  Si2       1.0  0.005073422809063006  3.2896598303455456e-05  0.99944616497295  1.0000
  Si  Si3       1.0  0.009073423419206054  0.002032896586111384  0.9990975444277806  1.0000
  Si  Si4       1.0  0.0030734229346329077  0.004032896347163653  0.9996204753195654  1.0000
  Si  Si5       1.0  0.0010436748629769137  0.008092323317350061  0.9998065964596924  1.0000
  Si  Si6       1.0  0.006073422975539237  0.00303289638226332  0.9993590098761242  1.0000
  Si  Si7       1.0  0.0040734228769901725  0.007032896579361448  0.9995333202097176  1.0000
  Si  Si8       1.0  0.008073423029002163  0.009032896509162116  0.9991846996662335  1.0000
  Si  Si9       1.0  0.002207359277817001  0.0010201861544299798  0.9997069441832337  1.0000
  Si  Si10      1.0  0.00992657749333283  0.005121344097022304  0.999827465727689  1.0000
  Si  Si11      1.0  0.0010734228586269112  0.00303289638226332  0.9993590098761242  1.0000
  Si  Si12      1.0  0.009073422993902498  0.007032896579361448  0.9995333202097176  1.0000
  Si  Si13      1.0  0.0030734229120898387  0.009032896509162116  0.9991846996662335  1.0000
  Si  Si14      1.0  0.006956913386179627  0.0010195150420539366  0.9997069830928148  1.0000
  Si  Si15      1.0  0.005121568832491429  0.005120575954317816  0.9998267780961128  1.0000
  As  As1       1.0  0.006303021531957117  0.0031476959169432594  0.9995819000570677  1.0000
  As  As2       1.0  0.004225257173489331  0.007234070993687331  0.9997552485170161  1.0000
  As  As3       1.0  0.00830302192291684  0.009147695368848465  0.9994075898667866  1.0000
  As  As4       1.0  0.003225486506767997  0.0006904151677129031  0.9999338045564555  1.0000
  As  As5       1.0  0.0003030214501444583  0.005147695846743927  0.99923328006823  1.0000
  As  As6       1.0  0.0007290247675290915  0.0031476959169432594  0.9995819000570677  1.0000
  As  As7       1.0  0.008717150264229607  0.007234959960244282  0.9997553375028361  1.0000
  As  As8       1.0  0.002729025158488814  0.009147695368848465  0.9994075898667866  1.0000
  As  As9       1.0  0.006265166211069168  0.0006916876993769064  0.9999338324808782  1.0000
  As  As10      1.0  0.004729024919541083  0.005147695846743927  0.99923328006823  1.0000
  As  As11      1.0  0.007188221796693357  0.005803297882598031  0.9995047503026961  1.0000
  As  As12      1.0  0.005191629760525342  0.009800429694438935  0.9996688375278273  1.0000
  As  As13      1.0  0.009188221810868223  0.0018032978542482996  0.9993304405188468  1.0000
  As  As14      1.0  0.003148546612760019  0.0038684061469257793  0.9998549669591317  1.0000
  As  As15      1.0  0.0011882222020153852  0.007803297812398698  0.9991561303138584  1.0000
  As  As16      1.0  0.008155258799534795  0.003855363920795626  0.9998879951199956  1.0000
  As  As17      1.0  0.006073423608879253  0.008032896206764987  0.9991161086455593  1.0000
  As  As18      1.0  7.342269976216067e-05  3.2896598303455456e-05  0.9996390393859123  1.0000
  As  As19      1.0  0.004073422815159042  0.002032896586111384  0.9992904188407429  1.0000
  As  As20      1.0  0.0020734229697325743  0.00603289627696432  0.9994647291890435  1.0000
