data_image0
_chemical_formula_structural       COY12
_chemical_formula_sum              "C1 O1 Y12"
_cell_length_a       5.765637397766113
_cell_length_b       9.75698796256286
_cell_length_c       99.50235748291016
_cell_angle_alpha    79.10660573378196
_cell_angle_beta     90.0
_cell_angle_gamma    90.0

_space_group_name_H-M_alt    "P 1"
_space_group_IT_number       1

loop_
  _space_group_symop_operation_xyz
  'x, y, z'

loop_
  _atom_site_type_symbol
  _atom_site_label
  _atom_site_symmetry_multiplicity
  _atom_site_fract_x
  _atom_site_fract_y
  _atom_site_fract_z
  _atom_site_occupancy
  C   C1        1.0  0.001249999996769403  0.007938846545598023  0.00014291842725258576  1.0000
  O   O1        1.0  0.001249999996769403  0.007938846545598023  0.0002635182302885221  1.0000
  Y   Y1        1.0  0.008749999896620893  0.007777778164863351  0.9992999329714511  1.0000
  Y   Y2        1.0  0.008749999896620893  0.004444444276822567  0.9995470154647963  1.0000
  Y   Y3        1.0  0.008749999896620893  0.0011111110692056418  0.9994234742628657  1.0000
  Y   Y4        1.0  0.0037499999095432814  0.005555555443231617  0.9993411134085274  1.0000
  Y   Y5        1.0  0.0037499999095432814  0.0022222221384112836  0.9995881958910647  1.0000
  Y   Y6        1.0  0.0037499999095432814  0.008888888553645134  0.9994646546122593  1.0000
  Y   Y7        1.0  0.008749999896620893  0.007777778164863351  0.9996705569536316  1.0000
  Y   Y8        1.0  0.008749999896620893  0.004444444276822567  0.999917639147463  1.0000
  Y   Y9        1.0  0.008749999896620893  0.0011111110692056418  0.9997940982450462  1.0000
  Y   Y10       1.0  0.0037499999095432814  0.005555555443231617  0.9997117373907078  1.0000
  Y   Y11       1.0  0.0037499999095432814  0.0022222221384112836  0.9999588195737316  1.0000
  Y   Y12       1.0  0.0037499999095432814  0.008888888553645134  0.999835278294926  1.0000
