data_image0
_chemical_formula_structural       HSb8V4
_chemical_formula_sum              "H1 Sb8 V4"
_cell_length_a       5.474670215870805
_cell_length_b       5.474670098103649
_cell_length_c       104.50090789794922
_cell_angle_alpha    85.97369305992358
_cell_angle_beta     85.97369314667745
_cell_angle_gamma    74.64453918803365

_space_group_name_H-M_alt    "P 1"
_space_group_IT_number       1

loop_
  _space_group_symop_operation_xyz
  'x, y, z'

loop_
  _atom_site_type_symbol
  _atom_site_label
  _atom_site_symmetry_multiplicity
  _atom_site_fract_x
  _atom_site_fract_y
  _atom_site_fract_z
  _atom_site_occupancy
  H   H1        1.0  0.009097832771699267  0.0010473238403291604  0.00010917254084432034  1.0000
  Sb  Sb1       1.0  0.00750707146648444  0.004532472182711616  0.9996051530587832  1.0000
  Sb  Sb2       1.0  0.0012999640610156199  0.008428618593628453  2.2693261608944967e-05  1.0000
  Sb  Sb3       1.0  0.0024939012441738  0.005795642358598512  0.9993988095208715  1.0000
  Sb  Sb4       1.0  0.006316745213856492  0.009303884442218281  0.9998294704392253  1.0000
  Sb  Sb5       1.0  0.00236968061785789  0.005796180486459105  0.9997346731584568  1.0000
  Sb  Sb6       1.0  0.008657544788846963  0.0019592860870027316  0.999321974326785  1.0000
  Sb  Sb7       1.0  0.0036707151968276997  0.0006961155136149528  0.9995283177599568  1.0000
  Sb  Sb8       1.0  0.007248344742986596  0.004018671729426344  0.9999585548639858  1.0000
  V   V1        1.0  0.009019808359594286  0.009183379134857172  0.9995667352285447  1.0000
  V   V2        1.0  0.002389192939598591  0.002850919961907755  0.9999554797444904  1.0000
  V   V3        1.0  0.0009021667892847434  0.0011287427093038243  0.9997737651476123  1.0000
  V   V4        1.0  0.007144807868451402  0.0073083791348571734  0.999360391977456  1.0000
