data_image0
_chemical_formula_structural       COV20Si12
_chemical_formula_sum              "C1 O1 V20 Si12"
_cell_length_a       4.856281757354736
_cell_length_b       12.368887901306152
_cell_length_c       41.43527603149414
_cell_angle_alpha    90.0
_cell_angle_beta     90.0
_cell_angle_gamma    90.0

_space_group_name_H-M_alt    "P 1"
_space_group_IT_number       1

loop_
  _space_group_symop_operation_xyz
  'x, y, z'

loop_
  _atom_site_type_symbol
  _atom_site_label
  _atom_site_symmetry_multiplicity
  _atom_site_fract_x
  _atom_site_fract_y
  _atom_site_fract_z
  _atom_site_occupancy
  C   C1        1.0  0.0037497650503060527  0.006969053382151148  0.00023629592255907723  1.0000
  O   O1        1.0  0.0037497650503060527  0.006969053382151148  0.0005259044534256968  1.0000
  V   V1        1.0  0.008749662994320409  0.005000004722538707  0.9990396991132119  1.0000
  V   V2        1.0  0.008749587050675049  9.179999843826241e-08  0.9998644350402858  1.0000
  V   V3        1.0  0.008749071554415637  0.0037254571831895514  0.999667636012362  1.0000
  V   V4        1.0  0.008749662994320409  0.008776083424590773  0.9988107837745531  1.0000
  V   V5        1.0  0.003749663408558475  0.008776083424590773  0.9983889091241086  1.0000
  V   V6        1.0  0.003749663408558475  0.003776083520969113  0.9992506364384341  1.0000
  V   V7        1.0  0.006249663393216324  0.0033333379876040493  0.9985998464493309  1.0000
  V   V8        1.0  0.006240741165547843  0.008346055916862964  0.9994648053539175  1.0000
  V   V9        1.0  0.008749764252514221  0.006274653459145877  0.999667633494987  1.0000
  V   V10       1.0  0.008749662994320409  0.0012239260957822217  0.9988107837745531  1.0000
  V   V11       1.0  0.006249663393216324  0.00666667115629105  0.9985998464493309  1.0000
  V   V12       1.0  0.006240952120118287  0.001653964069595494  0.9994648370009176  1.0000
  V   V13       1.0  0.003749663408558475  0.0012239260957822217  0.9983889091241086  1.0000
  V   V14       1.0  0.003749663408558475  0.006223925924108302  0.9992506364384341  1.0000
  V   V15       1.0  0.0012496633280121845  0.0033333379876040493  0.9985998464493309  1.0000
  V   V16       1.0  0.0012585558302639214  0.008346036641194772  0.9994648064327925  1.0000
  V   V17       1.0  0.0037493680721598535  0.00499994147425245  0.9996984846449676  1.0000
  V   V18       1.0  0.003749663408558475  4.800000091053885e-09  0.9990217207401504  1.0000
  V   V19       1.0  0.0012496633280121845  0.00666667115629105  0.9985998464493309  1.0000
  V   V20       1.0  0.0012584600377112515  0.0016539232593917419  0.9994647949247925  1.0000
  Si  Si1       1.0  0.003749663408558475  0.005000004722538707  0.9987803181425738  1.0000
  Si  Si2       1.0  0.003749600889294871  0.009999994988326271  0.9996586572549563  1.0000
  Si  Si3       1.0  0.0037497650503060527  0.006969053382151148  0.9998182825657528  1.0000
  Si  Si4       1.0  0.003749663408558475  0.0019764285298895065  0.9989404739002472  1.0000
  Si  Si5       1.0  0.008749609296793387  0.007984608827107203  0.9999999748262499  1.0000
  Si  Si6       1.0  0.008749662994320409  0.0030235810115662493  0.9991209459531151  1.0000
  Si  Si7       1.0  0.0037491091733688545  0.003031031358505146  0.9998182728558778  1.0000
  Si  Si8       1.0  0.003749663408558475  0.008023581216370224  0.9989404739002472  1.0000
  Si  Si9       1.0  0.008749662994320409  0.005000004722538707  0.9984193743964629  1.0000
  Si  Si10      1.0  0.008749663761427938  5.90000018372786e-09  0.9992716273901311  1.0000
  Si  Si11      1.0  0.008750336514730771  0.0020154652215768902  0.0  1.0000
  Si  Si12      1.0  0.008749662994320409  0.006976428734693481  0.9991209459531151  1.0000
