data_image0
_chemical_formula_structural       CONi18Sn24
_chemical_formula_sum              "C1 O1 Ni18 Sn24"
_cell_length_a       6.534834445669279
_cell_length_b       9.37544765586126
_cell_length_c       103.68973541259766
_cell_angle_alpha    84.58961197740196
_cell_angle_beta     89.86663165184476
_cell_angle_gamma    73.91514704814759

_space_group_name_H-M_alt    "P 1"
_space_group_IT_number       1

loop_
  _space_group_symop_operation_xyz
  'x, y, z'

loop_
  _atom_site_type_symbol
  _atom_site_label
  _atom_site_symmetry_multiplicity
  _atom_site_fract_x
  _atom_site_fract_y
  _atom_site_fract_z
  _atom_site_occupancy
  C   C1        1.0  0.000815546447629573  0.008441086901012196  9.475929005987997e-05  1.0000
  O   O1        1.0  0.000815546447629573  0.008441086901012196  0.00021048882361786002  1.0000
  Ni  Ni1       1.0  0.003411540926073111  0.006669319900618516  0.9990695735532441  1.0000
  Ni  Ni2       1.0  0.006744874403226927  0.003335986473102411  0.9988529675031522  1.0000
  Ni  Ni3       1.0  7.820765386614309e-05  2.6532498933441396e-06  0.9992861796384631  1.0000
  Ni  Ni4       1.0  0.0025542795823608366  0.0018438670979945106  0.9991871611513088  1.0000
  Ni  Ni5       1.0  0.005887612844679067  0.008510533953026722  0.9989705550643494  1.0000
  Ni  Ni6       1.0  0.009220946321832882  0.005177200525510617  0.9987539490142575  1.0000
  Ni  Ni7       1.0  0.000935469577535214  0.004828105848210311  0.999168591754637  1.0000
  Ni  Ni8       1.0  0.004268802972171871  0.0014947726284503205  0.998951985702786  1.0000
  Ni  Ni9       1.0  0.007602136197007547  0.008161438860214188  0.9987353796211458  1.0000
  Ni  Ni10      1.0  0.003427948113045808  0.006631843190577603  0.9997183260573451  1.0000
  Ni  Ni11      1.0  0.006744874403226927  0.003335986473102411  0.9995027856782279  1.0000
  Ni  Ni12      1.0  0.0001514375627403485  8.47520489585329e-05  0.9999151940204904  1.0000
  Ni  Ni13      1.0  0.0025785192947830543  0.0018496674409642885  0.9998221843504932  1.0000
  Ni  Ni14      1.0  0.005887612844679067  0.008510533953026722  0.9996203735268433  1.0000
  Ni  Ni15      1.0  0.009220946321832882  0.005177200525510617  0.9994037671893332  1.0000
  Ni  Ni16      1.0  0.0009194198403422644  0.004921816736875159  0.9998144448595613  1.0000
  Ni  Ni17      1.0  0.004268802972171871  0.0014947726284503205  0.99960180416528  1.0000
  Ni  Ni18      1.0  0.007602136197007547  0.008161438860214188  0.9993851980836397  1.0000
  Sn  Sn1       1.0  0.00492458763105789  0.003721699412177176  0.999081137362011  1.0000
  Sn  Sn2       1.0  0.008257921046323837  0.00038836614047815636  0.9988645313105998  1.0000
  Sn  Sn3       1.0  0.0015912544389381032  0.007055032839693281  0.9992977431246428  1.0000
  Sn  Sn4       1.0  0.008565161745464024  0.002950273534027646  0.9992746158192856  1.0000
  Sn  Sn5       1.0  0.001898494956190708  0.009616939973547628  0.9990580097479118  1.0000
  Sn  Sn6       1.0  0.005231828268310207  0.0062836069615437515  0.9988414036943017  1.0000
  Sn  Sn7       1.0  0.00023462293940791545  0.0032828021542440967  0.9989715365619906  1.0000
  Sn  Sn8       1.0  0.0035679567943115074  0.009949468593764077  0.9987549304784867  1.0000
  Sn  Sn9       1.0  0.006901290271465323  0.006616135166247972  0.9991881426034706  1.0000
  Sn  Sn10      1.0  0.0032551257104199314  0.00338917099971684  0.9987343981671831  1.0000
  Sn  Sn11      1.0  0.006588459117949895  5.583774749495655e-05  0.9991676102906827  1.0000
  Sn  Sn12      1.0  0.009921792817443167  0.006722504219476831  0.998951004494343  1.0000
  Sn  Sn13      1.0  0.004972757885333927  0.0036756884964515126  0.999743994034562  1.0000
  Sn  Sn14      1.0  0.008257921046323837  0.00038836614047815636  0.9995143491982572  1.0000
  Sn  Sn15      1.0  0.0013423707813097403  0.007173985680797044  0.9999386417453132  1.0000
  Sn  Sn16      1.0  0.009036333459604615  0.002958609124866624  0.9999281095738993  1.0000
  Sn  Sn17      1.0  0.0020056534760364776  0.009583493732134305  0.9997050030016679  1.0000
  Sn  Sn18      1.0  0.005231828268310207  0.0062836069615437515  0.9994912215819591  1.0000
  Sn  Sn19      1.0  0.00023462293940791545  0.0032828021542440967  0.9996213550244845  1.0000
  Sn  Sn20      1.0  0.0035679567943115074  0.009949468593764077  0.9994047489409806  1.0000
  Sn  Sn21      1.0  0.00687598849722584  0.006543877173999875  0.9998406602793913  1.0000
  Sn  Sn22      1.0  0.0032551257104199314  0.00338917099971684  0.9993842163422587  1.0000
  Sn  Sn23      1.0  0.006475090207639208  0.009997346405937552  0.9998333504943244  1.0000
  Sn  Sn24      1.0  0.009921792817443167  0.006722504219476831  0.9996008226694187  1.0000
