data_image0
_chemical_formula_structural       HCu2Sn2Cu2Sn2Cu2Sn2Cu2Sn2
_chemical_formula_sum              "H1 Cu8 Sn8"
_cell_length_a       8.456920172484265
_cell_length_b       5.161495685577393
_cell_length_c       103.82768249511719
_cell_angle_alpha    90.0
_cell_angle_beta     119.99999803491431
_cell_angle_gamma    90.0

_space_group_name_H-M_alt    "P 1"
_space_group_IT_number       1

loop_
  _space_group_symop_operation_xyz
  'x, y, z'

loop_
  _atom_site_type_symbol
  _atom_site_label
  _atom_site_symmetry_multiplicity
  _atom_site_fract_x
  _atom_site_fract_y
  _atom_site_fract_z
  _atom_site_occupancy
  H   H1        1.0  0.006134144048627585  0.0012752744287210767  0.0003461315030472699  1.0000
  Cu  Cu1       1.0  4.831954704595859e-05  0.0012499617041425049  0.9998102516571445  1.0000
  Cu  Cu2       1.0  4.831954704595859e-05  0.006249961891796538  0.9998102516571445  1.0000
  Sn  Sn1       1.0  0.003381652689212459  0.003749961617532952  0.9995387465835329  1.0000
  Sn  Sn2       1.0  0.0017149862293959353  0.008749961805186984  0.9996744991248702  1.0000
  Cu  Cu3       1.0  0.009951679752291569  0.0012752744287210767  0.0002016608064156749  1.0000
  Cu  Cu4       1.0  0.009951640077755905  0.006224643032374605  0.0002016517276946637  1.0000
  Sn  Sn3       1.0  0.003350667385506859  0.0037498984647336524  0.9999410205229995  1.0000
  Sn  Sn4       1.0  0.001733504700402973  0.00875003831029242  8.464583284516428e-05  1.0000
  Cu  Cu5       1.0  0.005048319149028983  0.0012499617041425049  0.9998102515950092  1.0000
  Cu  Cu6       1.0  0.005048319149028983  0.006249961891796538  0.9998102515950092  1.0000
  Sn  Sn5       1.0  0.008381652577309922  0.003749961617532952  0.9995387465330497  1.0000
  Sn  Sn6       1.0  0.006714985863169452  0.008749961805186984  0.9996744990640295  1.0000
  Cu  Cu7       1.0  0.004951680118518052  0.0012752744287210767  0.00020166086725634282  1.0000
  Cu  Cu8       1.0  0.004951639935334495  0.006224643032374605  0.00020165176782026672  1.0000
  Sn  Sn7       1.0  0.008350667273604322  0.0037498984647336524  0.9999410204725163  1.0000
  Sn  Sn8       1.0  0.00673350471566241  0.00875003831029242  8.464578754079507e-05  1.0000
