data_image0
_chemical_formula_structural       HGa12As6Rh30
_chemical_formula_sum              "H1 Ga12 As6 Rh30"
_cell_length_a       13.156203955659958
_cell_length_b       5.5263895988464355
_cell_length_c       114.38227844238281
_cell_angle_alpha    90.0
_cell_angle_beta     120.06792533679265
_cell_angle_gamma    90.0

_space_group_name_H-M_alt    "P 1"
_space_group_IT_number       1

loop_
  _space_group_symop_operation_xyz
  'x, y, z'

loop_
  _atom_site_type_symbol
  _atom_site_label
  _atom_site_symmetry_multiplicity
  _atom_site_fract_x
  _atom_site_fract_y
  _atom_site_fract_z
  _atom_site_occupancy
  H   H1        1.0  0.001854268111334927  0.003798383957075084  0.00020857262303306367  1.0000
  Ga  Ga1       1.0  0.0065765391659115  0.003906560418972777  0.9995490821875641  1.0000
  Ga  Ga2       1.0  0.009935550915927854  0.003820290908186499  0.9998634797421647  1.0000
  Ga  Ga3       1.0  0.00324320540941581  0.003906560418972777  0.999225734316547  1.0000
  Ga  Ga4       1.0  0.007572496271006058  0.006199609529737623  0.9993558580113716  1.0000
  Ga  Ga5       1.0  0.0009058290852020671  0.006199609529737623  0.9996792051714996  1.0000
  Ga  Ga6       1.0  0.0042485122213546545  0.006136202494262352  1.159905084357533e-05  1.0000
  Ga  Ga7       1.0  0.008243205553378262  0.001199609485921698  0.9992257345228615  1.0000
  Ga  Ga8       1.0  0.0015765388583553544  0.001199609485921698  0.9995490822323723  1.0000
  Ga  Ga9       1.0  0.004936249971416909  0.001287166679319807  0.9998634033632838  1.0000
  Ga  Ga10      1.0  0.005905829229164518  0.008906560715572881  0.9996792056383641  1.0000
  Ga  Ga11      1.0  0.00924922105320291  0.008970327715720167  1.1650258773397908e-05  1.0000
  Ga  Ga12      1.0  0.0025724957998562174  0.008906560715572881  0.9993558580467523  1.0000
  As  As1       1.0  0.00874118410592554  5.308499900165753e-05  0.9996141438764186  1.0000
  As  As2       1.0  0.002162817598443304  0.009946915241353967  0.99995104384764  1.0000
  As  As3       1.0  0.005407850676617239  5.308499900165753e-05  0.9992907960242567  1.0000
  As  As4       1.0  0.007163267297879021  0.005159525988597268  0.9999510353076965  1.0000
  As  As5       1.0  0.000407850696248483  0.0050530849743552  0.9992907963484703  1.0000
  As  As6       1.0  0.003741183961963089  0.0050530849743552  0.9996141439306544  1.0000
  Rh  Rh1       1.0  0.005751252164462369  0.003374446350067159  0.9997091947087309  1.0000
  Rh  Rh2       1.0  0.009085815163980665  0.003502706009480504  1.9543961173028507e-05  1.0000
  Rh  Rh3       1.0  0.002417918407966679  0.003374446350067159  0.9993858470982641  1.0000
  Rh  Rh4       1.0  0.00839778327245519  0.006731723598643241  0.9991957452296547  1.0000
  Rh  Rh5       1.0  0.0017311162502448932  0.006731723598643241  0.9995190926597602  1.0000
  Rh  Rh6       1.0  0.005064449843146889  0.006731723598643241  0.9998424402607995  1.0000
  Rh  Rh7       1.0  0.006731116230613649  0.008374446646667264  0.999519092596097  1.0000
  Rh  Rh8       1.0  6.444960205068125e-05  0.008374446646667264  0.9998424403094377  1.0000
  Rh  Rh9       1.0  0.0033977831284927383  0.008374446646667264  0.9991957450233403  1.0000
  Rh  Rh10      1.0  0.00741791855192913  0.0017317236390887098  0.9993858473045785  1.0000
  Rh  Rh11      1.0  0.0007512517751093758  0.0017317236390887098  0.9997091947488254  1.0000
  Rh  Rh12      1.0  0.004085733223170822  0.0016030537952129648  1.9504909009645325e-05  1.0000
  Rh  Rh13      1.0  0.009489881774475102  0.008678384907166109  0.9994688900518792  1.0000
  Rh  Rh14      1.0  0.002823215243045891  0.008678384907166109  0.9997922372497172  1.0000
  Rh  Rh15      1.0  0.005995931401253233  0.008808046339117762  8.609031822309913e-05  1.0000
  Rh  Rh16      1.0  0.007992486437375977  0.0014277850415442912  0.999759397700958  1.0000
  Rh  Rh17      1.0  0.0011876237232938658  0.0012985191325726106  6.844020100255167e-05  1.0000
  Rh  Rh18      1.0  0.004659152680880287  0.0014277850415442912  0.9994360500904912  1.0000
  Rh  Rh19      1.0  0.009659152824842738  0.0036783849476115776  0.9994360500362554  1.0000
  Rh  Rh20      1.0  0.002992486293413526  0.0036783849476115776  0.9997593977551938  1.0000
  Rh  Rh21      1.0  0.006186652856880927  0.003807685403754496  6.839304823300046e-05  1.0000
  Rh  Rh22      1.0  0.007823215387008342  0.006427785338144395  0.9997922377165818  1.0000
  Rh  Rh23      1.0  0.0009965523407530288  0.00629824861305477  8.618609070277838e-05  1.0000
  Rh  Rh24      1.0  0.004489881957700041  0.006427785338144395  0.9994688901249701  1.0000
  Rh  Rh25      1.0  0.00874118410592554  0.0050530849743552  0.9996141438764186  1.0000
  Rh  Rh26      1.0  0.002096606976728213  0.005245995367408364  0.9999345368730007  1.0000
  Rh  Rh27      1.0  0.005407850676617239  0.0050530849743552  0.9992907960242567  1.0000
  Rh  Rh28      1.0  0.007097581157549407  0.009859001622262359  0.9999345257284697  1.0000
  Rh  Rh29      1.0  0.000407850696248483  5.308499900165753e-05  0.9992907963484703  1.0000
  Rh  Rh30      1.0  0.003741183961963089  5.308499900165753e-05  0.9996141439306544  1.0000
