data_image0
_chemical_formula_structural       HNb12Pt12
_chemical_formula_sum              "H1 Nb12 Pt12"
_cell_length_a       7.457299970309949
_cell_length_b       6.894429295050041
_cell_length_c       99.0596694946289
_cell_angle_alpha    92.25111782466406
_cell_angle_beta     95.92311347532923
_cell_angle_gamma    85.61074912010496

_space_group_name_H-M_alt    "P 1"
_space_group_IT_number       1

loop_
  _space_group_symop_operation_xyz
  'x, y, z'

loop_
  _atom_site_type_symbol
  _atom_site_label
  _atom_site_symmetry_multiplicity
  _atom_site_fract_x
  _atom_site_fract_y
  _atom_site_fract_z
  _atom_site_occupancy
  H   H1        1.0  0.004523050063161564  0.0072627167538418125  5.499215795752506e-05  1.0000
  Nb  Nb1       1.0  0.0025063982587029084  0.004153036749616851  0.9994048434141031  1.0000
  Nb  Nb2       1.0  0.008415489111027576  0.009153036791434923  0.999538186832601  1.0000
  Nb  Nb3       1.0  0.0019311320180303417  0.008449933509282697  0.9994235942635935  1.0000
  Nb  Nb4       1.0  0.007840223122140761  0.0034499333907361297  0.9995569376144129  1.0000
  Nb  Nb5       1.0  0.0043245799432093815  0.004153036791574495  0.999671530133496  1.0000
  Nb  Nb6       1.0  0.0003402667603885755  0.009139230359225335  0.999805147289538  1.0000
  Nb  Nb7       1.0  0.003749313954322568  0.008449933531470883  0.9996902806840361  1.0000
  Nb  Nb8       1.0  0.009659733228281066  0.003464514295673134  0.9998229557787327  1.0000
  Nb  Nb9       1.0  0.006284763756800069  0.004024048214980803  0.9999364748107477  1.0000
  Nb  Nb10      1.0  0.002111649813780063  0.009030135656987053  5.278743169376129e-05  1.0000
  Nb  Nb11      1.0  0.005741471537139374  0.008504746608233435  0.9999512967699048  1.0000
  Nb  Nb12      1.0  0.0011131660907500636  0.003493459206795173  7.268659176744835e-05  1.0000
  Pt  Pt1       1.0  0.009570973714566455  0.0016764074160078063  0.9993375484170416  1.0000
  Pt  Pt2       1.0  0.005480065050319766  0.006676406976452949  0.9994708917898426  1.0000
  Pt  Pt3       1.0  0.004866556330523904  0.0009265630287123585  0.9994908892383038  1.0000
  Pt  Pt4       1.0  0.008957465498342098  0.005926562893385113  0.9993575459370392  1.0000
  Pt  Pt5       1.0  0.0013891560083944484  0.0016764073722708131  0.9996042350927974  1.0000
  Pt  Pt6       1.0  0.007298246734826239  0.006676407018410592  0.9997375785092355  1.0000
  Pt  Pt7       1.0  0.006684738015030377  0.0009265630706700021  0.9997575756568444  1.0000
  Pt  Pt8       1.0  0.0007756470368128337  0.005926562773768819  0.9996242323058673  1.0000
  Pt  Pt9       1.0  0.003265838224261518  0.0017170364336924332  0.9998850070435061  1.0000
  Pt  Pt10      1.0  0.009219986388905326  0.006709708319253544  6.919005393407169e-07  1.0000
  Pt  Pt11      1.0  0.008722500040608008  0.0008469632267333095  1.9031347554164178e-05  1.0000
  Pt  Pt12      1.0  0.0028337413914249557  0.00586114965761138  0.9999078854540608  1.0000
