data_image0
_chemical_formula_structural       COMo2Se4Mo2Se4Mo2Se4Mo2Se4Mo2Se4Mo2Se4
_chemical_formula_sum              "C1 O1 Mo12 Se24"
_cell_length_a       14.33484935760498
_cell_length_b       6.686515082629909
_cell_length_c       103.43257904052734
_cell_angle_alpha    59.999998769928425
_cell_angle_beta     90.0
_cell_angle_gamma    90.0

_space_group_name_H-M_alt    "P 1"
_space_group_IT_number       1

loop_
  _space_group_symop_operation_xyz
  'x, y, z'

loop_
  _atom_site_type_symbol
  _atom_site_label
  _atom_site_symmetry_multiplicity
  _atom_site_fract_x
  _atom_site_fract_y
  _atom_site_fract_z
  _atom_site_occupancy
  C   C1        1.0  0.007499983451065282  0.0016006698849123444  0.999931669030537  1.0000
  O   O1        1.0  0.007499983451065282  0.0016006698849123444  4.768629342807874e-05  1.0000
  Mo  Mo1       1.0  0.002500010769281638  0.00013104570579810718  0.9994755150094966  1.0000
  Mo  Mo2       1.0  0.007499992806618829  0.009997302491542915  0.999493761408187  1.0000
  Se  Se1       1.0  0.0032902761964813273  0.0030962000629366315  0.9997383058965847  1.0000
  Se  Se2       1.0  0.006376816503382735  0.0016045362613771568  0.9996093187674062  1.0000
  Se  Se3       1.0  0.00862316235306625  0.0016045259681952207  0.9996093202526447  1.0000
  Se  Se4       1.0  0.0017096912877725692  0.003096234480763731  0.9997383065128922  1.0000
  Mo  Mo3       1.0  0.002499999854469167  2.6975000260232548e-06  0.9991688665392003  1.0000
  Mo  Mo4       1.0  0.007500000083160476  2.6975000260232548e-06  0.9991688665392003  1.0000
  Se  Se5       1.0  0.003670737712923251  0.00333603088038985  0.9993843535831357  1.0000
  Se  Se6       1.0  0.006329262224706392  0.001669364168690512  0.9992766099177971  1.0000
  Se  Se7       1.0  0.008670737421861585  0.001669364168690512  0.9992766099177971  1.0000
  Se  Se8       1.0  0.0013292621259533267  0.00333603088038985  0.9993843535831357  1.0000
  Mo  Mo5       1.0  0.002499999854469167  2.6975000260232548e-06  0.9988456359537292  1.0000
  Mo  Mo6       1.0  0.007500000083160476  2.6975000260232548e-06  0.9988456359537292  1.0000
  Se  Se9       1.0  0.003670737712923251  0.00333603088038985  0.9990611229976645  1.0000
  Se  Se10      1.0  0.006329262224706392  0.001669364168690512  0.9989533796204588  1.0000
  Se  Se11      1.0  0.008670737421861585  0.001669364168690512  0.9989533796204588  1.0000
  Se  Se12      1.0  0.0013292621259533267  0.00333603088038985  0.9990611229976645  1.0000
  Mo  Mo7       1.0  0.002500010769281638  0.0051310456901170875  0.9994755151367819  1.0000
  Mo  Mo8       1.0  0.007499992806618829  0.004997302517275871  0.9994937612805768  1.0000
  Se  Se13      1.0  0.0032902761964813273  0.008096200037203677  0.9997383060241949  1.0000
  Se  Se14      1.0  0.006376816503382735  0.006604536557306137  0.9996093188846193  1.0000
  Se  Se15      1.0  0.00862316235306625  0.006604526264124201  0.9996093203698578  1.0000
  Se  Se16      1.0  0.0017096912877725692  0.008096234776692711  0.9997383066301053  1.0000
  Mo  Mo9       1.0  0.002499999854469167  0.0050026977529201554  0.9991688663696717  1.0000
  Mo  Mo10      1.0  0.007500000083160476  0.0050026977529201554  0.9991688663696717  1.0000
  Se  Se17      1.0  0.003670737712923251  0.00833603117631883  0.9993843537003488  1.0000
  Se  Se18      1.0  0.006329262224706392  0.006669364303788525  0.9992766100402088  1.0000
  Se  Se19      1.0  0.008670737421861585  0.006669364303788525  0.9992766100402088  1.0000
  Se  Se20      1.0  0.0013292621259533267  0.00833603117631883  0.9993843537003488  1.0000
  Mo  Mo11      1.0  0.002499999854469167  0.0050026977529201554  0.9988456360723333  1.0000
  Mo  Mo12      1.0  0.007500000083160476  0.0050026977529201554  0.9988456360723333  1.0000
  Se  Se21      1.0  0.003670737712923251  0.00833603117631883  0.9990611228267448  1.0000
  Se  Se22      1.0  0.006329262224706392  0.006669364303788525  0.9989533794547376  1.0000
  Se  Se23      1.0  0.008670737421861585  0.006669364303788525  0.9989533794547376  1.0000
  Se  Se24      1.0  0.0013292621259533267  0.00833603117631883  0.9990611228267448  1.0000
