data_image0
_chemical_formula_structural       COCa12Ag12Ca12Ag12
_chemical_formula_sum              "C1 O1 Ca24 Ag24"
_cell_length_a       11.531831741333008
_cell_length_b       9.612279482030235
_cell_length_c       108.06671142578125
_cell_angle_alpha    101.24450502548089
_cell_angle_beta     90.0
_cell_angle_gamma    90.0

_space_group_name_H-M_alt    "P 1"
_space_group_IT_number       1

loop_
  _space_group_symop_operation_xyz
  'x, y, z'

loop_
  _atom_site_type_symbol
  _atom_site_label
  _atom_site_symmetry_multiplicity
  _atom_site_fract_x
  _atom_site_fract_y
  _atom_site_fract_z
  _atom_site_occupancy
  C   C1        1.0  0.0014066648790870197  0.006765627489384946  9.17937403115311e-05  1.0000
  O   O1        1.0  0.0014066648790870197  0.006765627489384946  0.00020283593411689829  1.0000
  Ca  Ca1       1.0  0.00358755503482798  0.009169500087247016  0.9993748778029236  1.0000
  Ca  Ca2       1.0  0.00358755503482798  0.0025028335522938377  0.9991791822765798  1.0000
  Ca  Ca3       1.0  0.00358755503482798  0.005836167017340661  0.9989834865737386  1.0000
  Ca  Ca4       1.0  0.0014124449457893738  0.005836167017340661  0.9992770300431785  1.0000
  Ca  Ca5       1.0  0.0014124449457893738  0.009169500087247016  0.9990813343334838  1.0000
  Ca  Ca6       1.0  0.0014124449457893738  0.0025028335522938377  0.9994727254702425  1.0000
  Ca  Ca7       1.0  0.008587555176967387  0.007502833947434306  0.999472725802513  1.0000
  Ca  Ca8       1.0  0.008587555176967387  0.0008361668197704266  0.9992770302658889  1.0000
  Ca  Ca9       1.0  0.008587555176967387  0.004169500087247016  0.999081334559621  1.0000
  Ca  Ca10      1.0  0.006412444926406728  0.007502833947434306  0.9991791823330731  1.0000
  Ca  Ca11      1.0  0.006412444926406728  0.0008361668197704266  0.998983486796449  1.0000
  Ca  Ca12      1.0  0.006412444926406728  0.004169500087247016  0.9993748780290608  1.0000
  Ag  Ag1       1.0  0.0007498671855837024  0.009169500087247016  0.9993748778029236  1.0000
  Ag  Ag2       1.0  0.0007498671855837024  0.0025028335522938377  0.9991791822765798  1.0000
  Ag  Ag3       1.0  0.0007498671855837024  0.005836167017340661  0.9989834865737386  1.0000
  Ag  Ag4       1.0  0.004250132714272624  0.005836167017340661  0.9992770300431785  1.0000
  Ag  Ag5       1.0  0.004250132714272624  0.009169500087247016  0.9990813343334838  1.0000
  Ag  Ag6       1.0  0.004250132714272624  0.0025028335522938377  0.9994727254702425  1.0000
  Ag  Ag7       1.0  0.005749867246962083  0.007502833947434306  0.999472725802513  1.0000
  Ag  Ag8       1.0  0.005749867246962083  0.0008361668197704266  0.9992770302658889  1.0000
  Ag  Ag9       1.0  0.005749867246962083  0.004169500087247016  0.999081334559621  1.0000
  Ag  Ag10      1.0  0.009250132856412033  0.007502833947434306  0.9991791823330731  1.0000
  Ag  Ag11      1.0  0.009250132856412033  0.0008361668197704266  0.998983486796449  1.0000
  Ag  Ag12      1.0  0.009250132856412033  0.004169500087247016  0.9993748780290608  1.0000
  Ca  Ca13      1.0  0.003601379707429754  0.009178688683682785  0.9999558071631772  1.0000
  Ca  Ca14      1.0  0.00358755503482798  0.0025028335522938377  0.9997662686639053  1.0000
  Ca  Ca15      1.0  0.00358755503482798  0.005836167017340661  0.9995705732368412  1.0000
  Ca  Ca16      1.0  0.0014160927598568874  0.005821310130895812  0.9998594082553046  1.0000
  Ca  Ca17      1.0  0.0014124449457893738  0.009169500087247016  0.9996684209965864  1.0000
  Ca  Ca18      1.0  0.0014012387072049773  0.0024245653138742986  4.205277119395624e-05  1.0000
  Ca  Ca19      1.0  0.008598783544073181  0.007424599295954521  4.205920155332498e-05  1.0000
  Ca  Ca20      1.0  0.008583900255929498  0.000821311217532098  0.999859411809614  1.0000
  Ca  Ca21      1.0  0.008587555176967387  0.004169500087247016  0.9996684212227236  1.0000
  Ca  Ca22      1.0  0.006412444926406728  0.007502833947434306  0.9997662689961757  1.0000
  Ca  Ca23      1.0  0.006412444926406728  0.0008361668197704266  0.9995705734595517  1.0000
  Ca  Ca24      1.0  0.0063986263916430055  0.00417870330388009  0.9999558059882313  1.0000
  Ag  Ag13      1.0  0.0007555605957040861  0.009175745677479396  0.9999593903087225  1.0000
  Ag  Ag14      1.0  0.0007498671855837024  0.0025028335522938377  0.9997662686639053  1.0000
  Ag  Ag15      1.0  0.0007498671855837024  0.005836167017340661  0.9995705732368412  1.0000
  Ag  Ag16      1.0  0.004220007882069487  0.005870620104999886  0.9998663614929255  1.0000
  Ag  Ag17      1.0  0.004250132714272624  0.009169500087247016  0.9996684209965864  1.0000
  Ag  Ag18      1.0  0.004144044383117866  0.002465183778250963  4.980558711577243e-05  1.0000
  Ag  Ag19      1.0  0.005855962685087217  0.007465180221986754  4.980640240541952e-05  1.0000
  Ag  Ag20      1.0  0.0057799872335036005  0.0008706233649087447  0.9998663623271583  1.0000
  Ag  Ag21      1.0  0.005749867246962083  0.004169500087247016  0.9996684212227236  1.0000
  Ag  Ag22      1.0  0.009250132856412033  0.007502833947434306  0.9997662689961757  1.0000
  Ag  Ag23      1.0  0.009250132856412033  0.0008361668197704266  0.9995705734595517  1.0000
  Ag  Ag24      1.0  0.00924442595920014  0.0041757863769475686  0.9999593901376616  1.0000
