data_image0
_chemical_formula_structural       HAl3Fe9Al3Fe9Al3Fe9Al3Fe9
_chemical_formula_sum              "H1 Al12 Fe36"
_cell_length_a       7.9997828293561435
_cell_length_b       7.999782562255859
_cell_length_c       109.1907730102539
_cell_angle_alpha    90.0
_cell_angle_beta     90.0
_cell_angle_gamma    119.99999889551925

_space_group_name_H-M_alt    "P 1"
_space_group_IT_number       1

loop_
  _space_group_symop_operation_xyz
  'x, y, z'

loop_
  _atom_site_type_symbol
  _atom_site_label
  _atom_site_symmetry_multiplicity
  _atom_site_fract_x
  _atom_site_fract_y
  _atom_site_fract_z
  _atom_site_occupancy
  H   H1        1.0  0.0025000000967885074  0.004166666839240638  3.805958075449769e-05  1.0000
  Al  Al1       1.0  0.000833333320786675  0.0008333333406421608  0.9998504501172909  1.0000
  Al  Al2       1.0  0.0025000000967885074  0.004166666839240638  0.999252249494702  1.0000
  Al  Al3       1.0  0.004166666469504893  0.0024999999732105123  0.9995513498059965  1.0000
  Fe  Fe1       1.0  0.0025000000967885074  0.004166666839240638  0.9997008996887056  1.0000
  Fe  Fe2       1.0  0.004166666469504893  0.0024999999732105123  0.0  1.0000
  Fe  Fe3       1.0  0.000833333320786675  0.0008333333406421608  0.9994017999232874  1.0000
  Fe  Fe4       1.0  0.0025000000967885074  0.004166666839240638  0.9994765745917038  1.0000
  Fe  Fe5       1.0  0.004166666469504893  0.0024999999732105123  0.9997756749029982  1.0000
  Fe  Fe6       1.0  0.000833333320786675  0.0008333333406421608  0.9991774745533475  1.0000
  Fe  Fe7       1.0  0.000833333320786675  0.0008333333406421608  0.9996261250202891  1.0000
  Fe  Fe8       1.0  0.0025000000967885074  0.004166666839240638  0.9999252247857073  1.0000
  Fe  Fe9       1.0  0.004166666469504893  0.0024999999732105123  0.9993270247089947  1.0000
  Al  Al4       1.0  0.000833333320786675  0.005833333358104933  0.9998504501172909  1.0000
  Al  Al5       1.0  0.0025000000967885074  0.00916666665297106  0.999252249494702  1.0000
  Al  Al6       1.0  0.004166666469504893  0.007499999932464042  0.9995513498059965  1.0000
  Fe  Fe10      1.0  0.0025000000967885074  0.00916666665297106  0.9997008996887056  1.0000
  Fe  Fe11      1.0  0.004166666469504893  0.007499999932464042  0.0  1.0000
  Fe  Fe12      1.0  0.000833333320786675  0.005833333358104933  0.9994017999232874  1.0000
  Fe  Fe13      1.0  0.0025000000967885074  0.00916666665297106  0.9994765745917038  1.0000
  Fe  Fe14      1.0  0.004166666469504893  0.007499999932464042  0.9997756749029982  1.0000
  Fe  Fe15      1.0  0.000833333320786675  0.005833333358104933  0.9991774745533475  1.0000
  Fe  Fe16      1.0  0.000833333320786675  0.005833333358104933  0.9996261250202891  1.0000
  Fe  Fe17      1.0  0.0025000000967885074  0.00916666665297106  0.9999252247857073  1.0000
  Fe  Fe18      1.0  0.004166666469504893  0.007499999932464042  0.9993270247089947  1.0000
  Al  Al7       1.0  0.0058333331110782425  0.0008333332998181115  0.9998504501172909  1.0000
  Al  Al8       1.0  0.007500000021508558  0.004166666632793859  0.999252249494702  1.0000
  Al  Al9       1.0  0.009166666394224943  0.0024999999413914615  0.9995513498059965  1.0000
  Fe  Fe19      1.0  0.007500000021508558  0.004166666632793859  0.9997008996887056  1.0000
  Fe  Fe20      1.0  0.009166666394224943  0.0024999999413914615  0.0  1.0000
  Fe  Fe21      1.0  0.0058333331110782425  0.0008333332998181115  0.9994017999232874  1.0000
  Fe  Fe22      1.0  0.007500000021508558  0.004166666632793859  0.9994765745917038  1.0000
  Fe  Fe23      1.0  0.009166666394224943  0.0024999999413914615  0.9997756749029982  1.0000
  Fe  Fe24      1.0  0.0058333331110782425  0.0008333332998181115  0.9991774745533475  1.0000
  Fe  Fe25      1.0  0.0058333331110782425  0.0008333332998181115  0.9996261250202891  1.0000
  Fe  Fe26      1.0  0.007500000021508558  0.004166666632793859  0.9999252247857073  1.0000
  Fe  Fe27      1.0  0.009166666394224943  0.0024999999413914615  0.9993270247089947  1.0000
  Al  Al10      1.0  0.0058333331110782425  0.005833333346385505  0.9998504501172909  1.0000
  Al  Al11      1.0  0.007500000021508558  0.009166666708465875  0.999252249494702  1.0000
  Al  Al12      1.0  0.009166666394224943  0.007499999987958856  0.9995513498059965  1.0000
  Fe  Fe28      1.0  0.007500000021508558  0.009166666708465875  0.9997008996887056  1.0000
  Fe  Fe29      1.0  0.009166666394224943  0.007499999987958856  0.0  1.0000
  Fe  Fe30      1.0  0.0058333331110782425  0.005833333346385505  0.9994017999232874  1.0000
  Fe  Fe31      1.0  0.007500000021508558  0.009166666708465875  0.9994765745917038  1.0000
  Fe  Fe32      1.0  0.009166666394224943  0.007499999987958856  0.9997756749029982  1.0000
  Fe  Fe33      1.0  0.0058333331110782425  0.005833333346385505  0.9991774745533475  1.0000
  Fe  Fe34      1.0  0.0058333331110782425  0.005833333346385505  0.9996261250202891  1.0000
  Fe  Fe35      1.0  0.007500000021508558  0.009166666708465875  0.9999252247857073  1.0000
  Fe  Fe36      1.0  0.009166666394224943  0.007499999987958856  0.9993270247089947  1.0000
