data_image0
_chemical_formula_structural       HAl4Pb2Se8
_chemical_formula_sum              "H1 Al4 Pb2 Se8"
_cell_length_a       6.329078674316406
_cell_length_b       6.4052210520575334
_cell_length_c       103.3016586303711
_cell_angle_alpha    90.0
_cell_angle_beta     90.0
_cell_angle_gamma    119.60753602344279

_space_group_name_H-M_alt    "P 1"
_space_group_IT_number       1

loop_
  _space_group_symop_operation_xyz
  'x, y, z'

loop_
  _atom_site_type_symbol
  _atom_site_label
  _atom_site_symmetry_multiplicity
  _atom_site_fract_x
  _atom_site_fract_y
  _atom_site_fract_z
  _atom_site_occupancy
  H   H1        1.0  0.002044897135711022  0.007194270996422496  4.424059201083017e-05  1.0000
  Al  Al1       1.0  0.007277764070323307  0.005081265603578995  0.999965075008558  1.0000
  Al  Al2       1.0  0.00758255614571366  0.0051846803877338195  0.9994097515464416  1.0000
  Al  Al3       1.0  0.0024174444915214853  0.004815322234536547  0.9994097515464416  1.0000
  Al  Al4       1.0  0.0027222348677290683  0.004918737687637894  0.999965075008558  1.0000
  Pb  Pb1       1.0  0.00500000181376884  0.009999999277537756  0.9996423772964903  1.0000
  Pb  Pb2       1.0  0.005000000171840544  1.0500000624754732e-09  0.9991411076860115  1.0000
  Se  Se1       1.0  0.009999999497055526  0.005000000642188661  0.9998098446182059  1.0000
  Se  Se2       1.0  0.008177404116082776  0.0016708534825377343  0.9994097515464416  1.0000
  Se  Se3       1.0  0.005000000184688276  0.005000001311135183  0.9995902999446823  1.0000
  Se  Se4       1.0  0.006587542098783232  0.008335924564581104  0.0  1.0000
  Se  Se5       1.0  0.0034124561801354377  0.0016640738767735002  0.0  1.0000
  Se  Se6       1.0  0.005000000184688276  0.005000001311135183  0.999229204013695  1.0000
  Se  Se7       1.0  0.0018225962332069307  0.008329148805259371  0.9994097515464416  1.0000
  Se  Se8       1.0  5.378477627785183e-10  0.005000001311135183  0.999053011646826  1.0000
