data_image0
_chemical_formula_structural       GaCo2NiGaCo2NiGaCo2NiGaCo2NiGaCo2NiGaCo2NiGaCo2NiGaCo2NiCO
_chemical_formula_sum              "Ga8 Co16 Ni8 C1 O1"
_cell_length_a       7.034968376159668
_cell_length_b       7.5016350746154785
_cell_length_c       41.86012649536133
_cell_angle_alpha    90.0
_cell_angle_beta     90.0
_cell_angle_gamma    90.0

_space_group_name_H-M_alt    "P 1"
_space_group_IT_number       1

loop_
  _space_group_symop_operation_xyz
  'x, y, z'

loop_
  _atom_site_type_symbol
  _atom_site_label
  _atom_site_symmetry_multiplicity
  _atom_site_fract_x
  _atom_site_fract_y
  _atom_site_fract_z
  _atom_site_occupancy
  Ga  Ga1       1.0  0.0012500000370677317  0.009999999841088925  0.9995900591166934  1.0000
  Co  Co1       1.0  0.003749999978818439  0.0024999999602722312  0.9996013410343858  1.0000
  Co  Co2       1.0  0.0012500000370677317  0.0024999999602722312  0.9999948796546844  1.0000
  Ni  Ni1       1.0  0.003749999978818439  0.0  0.0  1.0000
  Ga  Ga2       1.0  0.0012500000370677317  0.0  0.998750917319261  1.0000
  Co  Co3       1.0  0.003749999978818439  0.0024999999602722312  0.998750917319261  1.0000
  Co  Co4       1.0  0.0012500000370677317  0.0024999999602722312  0.9991710647195928  1.0000
  Ni  Ni2       1.0  0.003749999978818439  0.0  0.9991710647195928  1.0000
  Ga  Ga3       1.0  0.0012500000370677317  0.0049999999205444625  0.9995900591166934  1.0000
  Co  Co5       1.0  0.003749999978818439  0.007499999880816694  0.9996013410343858  1.0000
  Co  Co6       1.0  0.0012500000370677317  0.007499999880816694  0.9999948796546844  1.0000
  Ni  Ni3       1.0  0.003749999978818439  0.0049999999205444625  0.0  1.0000
  Ga  Ga4       1.0  0.0012500000370677317  0.0049999999205444625  0.998750917319261  1.0000
  Co  Co7       1.0  0.003749999978818439  0.007499999880816694  0.998750917319261  1.0000
  Co  Co8       1.0  0.0012500000370677317  0.007499999880816694  0.9991710647195928  1.0000
  Ni  Ni4       1.0  0.003749999978818439  0.0049999999205444625  0.9991710647195928  1.0000
  Ga  Ga5       1.0  0.006249999788184389  0.009999999841088925  0.9995900591166934  1.0000
  Co  Co9       1.0  0.008750000127089366  0.0024999999602722312  0.9996013410343858  1.0000
  Co  Co10      1.0  0.006249999788184389  0.0024999999602722312  0.9999948796546844  1.0000
  Ni  Ni5       1.0  0.008750000127089366  0.0  0.0  1.0000
  Ga  Ga6       1.0  0.006249999788184389  0.0  0.998750917319261  1.0000
  Co  Co11      1.0  0.008750000127089366  0.0024999999602722312  0.998750917319261  1.0000
  Co  Co12      1.0  0.006249999788184389  0.0024999999602722312  0.9991710647195928  1.0000
  Ni  Ni6       1.0  0.008750000127089366  0.0  0.9991710647195928  1.0000
  Ga  Ga7       1.0  0.006249999788184389  0.0049999999205444625  0.9995900591166934  1.0000
  Co  Co13      1.0  0.008750000127089366  0.007499999880816694  0.9996013410343858  1.0000
  Co  Co14      1.0  0.006249999788184389  0.007499999880816694  0.9999948796546844  1.0000
  Ni  Ni7       1.0  0.008750000127089366  0.0049999999205444625  0.0  1.0000
  Ga  Ga8       1.0  0.006249999788184389  0.0049999999205444625  0.998750917319261  1.0000
  Co  Co15      1.0  0.008750000127089366  0.007499999880816694  0.998750917319261  1.0000
  Co  Co16      1.0  0.006249999788184389  0.007499999880816694  0.9991710647195928  1.0000
  Ni  Ni8       1.0  0.008750000127089366  0.0049999999205444625  0.9991710647195928  1.0000
  C   C1        1.0  0.0012500000370677317  0.0008333332787076513  0.0004760746425828102  1.0000
  O   O1        1.0  0.0012500000370677317  0.0008333332787076513  0.0007627434971956228  1.0000
