data_image0
_chemical_formula_structural       HAl4Cr8Al4Cr8Al4Cr8Al4Cr8
_chemical_formula_sum              "H1 Al16 Cr32"
_cell_length_a       8.39578628540039
_cell_length_b       9.168358091913664
_cell_length_c       99.38525390625
_cell_angle_alpha    103.23430510853515
_cell_angle_beta     90.0
_cell_angle_gamma    76.76569489146486

_space_group_name_H-M_alt    "P 1"
_space_group_IT_number       1

loop_
  _space_group_symop_operation_xyz
  'x, y, z'

loop_
  _atom_site_type_symbol
  _atom_site_label
  _atom_site_symmetry_multiplicity
  _atom_site_fract_x
  _atom_site_fract_y
  _atom_site_fract_z
  _atom_site_occupancy
  H   H1        1.0  0.00284918780637847  0.009528836416274384  0.00020124231451641245  1.0000
  Al  Al1       1.0  0.00023041065653011137  4.715750195916437e-06  0.9997768950575585  1.0000
  Al  Al2       1.0  0.002730410675942403  4.715750195916437e-06  0.9995657019800198  1.0000
  Al  Al3       1.0  0.003980410521239566  0.005004715836555843  0.9996712984606396  1.0000
  Al  Al4       1.0  0.0014804106543524214  0.005004715836555843  0.9994601056829676  1.0000
  Cr  Cr1       1.0  0.00444123181092112  0.0031614306778296277  0.9994211767985319  1.0000
  Cr  Cr2       1.0  0.0019412319440339752  0.0031614306778296277  0.9996323695762039  1.0000
  Cr  Cr3       1.0  0.004769589240147034  0.0018480009609259719  0.9996046308655537  1.0000
  Cr  Cr4       1.0  0.002269589373259889  0.0018480009609259719  0.9993934380878816  1.0000
  Cr  Cr5       1.0  0.003191231802332098  0.008161430712185714  0.9997379660557256  1.0000
  Cr  Cr6       1.0  0.0006912319354449535  0.008161430712185714  0.9995267732780535  1.0000
  Cr  Cr7       1.0  0.0035195892315580115  0.006848000995282057  0.9994990345674033  1.0000
  Cr  Cr8       1.0  0.0010195893646708677  0.006848000995282057  0.9997102273450754  1.0000
  Al  Al5       1.0  0.00023241901825390984  0.009995284695963485  0.0001895017759759696  1.0000
  Al  Al6       1.0  0.0027114133855193324  8.013785112228689e-05  0.9999957916791913  1.0000
  Al  Al7       1.0  0.0039853699999167266  0.0049851405978827415  0.00011880124665822008  1.0000
  Al  Al8       1.0  0.0014804106543524214  0.005004715836555843  0.9998824915381784  1.0000
  Cr  Cr9       1.0  0.00444123181092112  0.0031614306778296277  0.9998435626537427  1.0000
  Cr  Cr10      1.0  0.0019353436762532446  0.003183853177096881  4.4408890752684766e-05  1.0000
  Cr  Cr11      1.0  0.004747006211009771  0.0019380295801636866  2.1491864403338107e-05  1.0000
  Cr  Cr12      1.0  0.002269589373259889  0.0018480009609259719  0.9998158239430925  1.0000
  Cr  Cr13      1.0  0.003221754738896318  0.008038366354662103  0.00014870020430665304  1.0000
  Cr  Cr14      1.0  0.0006938357174824101  0.008150831000875778  0.9999502783775173  1.0000
  Cr  Cr15      1.0  0.003519293457319057  0.006848864621383843  0.999930779807565  1.0000
  Cr  Cr16      1.0  0.0010303834922104447  0.006806278964928648  0.00011823536268209522  1.0000
  Al  Al9       1.0  0.005230410542829547  4.715750195916437e-06  0.9997768950575585  1.0000
  Al  Al10      1.0  0.0077304106315714514  4.715750195916437e-06  0.9995657019800198  1.0000
  Al  Al11      1.0  0.008980411142432893  0.005004715836555843  0.9996712984606396  1.0000
  Al  Al12      1.0  0.00648041060998147  0.005004715836555843  0.9994601056829676  1.0000
  Cr  Cr17      1.0  0.009441232432114447  0.0031614306778296277  0.9994211767985319  1.0000
  Cr  Cr18      1.0  0.006941231899663024  0.0031614306778296277  0.9996323695762039  1.0000
  Cr  Cr19      1.0  0.00976958986134036  0.0018480009609259719  0.9996046308655537  1.0000
  Cr  Cr20      1.0  0.007269589328888937  0.0018480009609259719  0.9993934380878816  1.0000
  Cr  Cr21      1.0  0.008191232423525424  0.008161430712185714  0.9997379660557256  1.0000
  Cr  Cr22      1.0  0.005691231891074002  0.008161430712185714  0.9995267732780535  1.0000
  Cr  Cr23      1.0  0.00851958985275134  0.006848000995282057  0.9994990345674033  1.0000
  Cr  Cr24      1.0  0.006019589320299916  0.006848000995282057  0.9997102273450754  1.0000
  Al  Al13      1.0  0.005232418752028198  0.009995284695963485  0.0001895017759759696  1.0000
  Al  Al14      1.0  0.0077114131192936195  8.013785112228689e-05  0.9999957916791913  1.0000
  Al  Al15      1.0  0.008985370621110053  0.0049851405978827415  0.00011880124665822008  1.0000
  Al  Al16      1.0  0.00648041060998147  0.005004715836555843  0.9998824915381784  1.0000
  Cr  Cr25      1.0  0.009441232432114447  0.0031614306778296277  0.9998435626537427  1.0000
  Cr  Cr26      1.0  0.006935344075591813  0.003183853177096881  4.4408890752684766e-05  1.0000
  Cr  Cr27      1.0  0.00974700638849358  0.0019380295801636866  2.1491864403338107e-05  1.0000
  Cr  Cr28      1.0  0.007269589328888937  0.0018480009609259719  0.9998158239430925  1.0000
  Cr  Cr29      1.0  0.008221754472670607  0.008038366354662103  0.00014870020430665304  1.0000
  Cr  Cr30      1.0  0.0056938356731114585  0.008150831000875778  0.9999502783775173  1.0000
  Cr  Cr31      1.0  0.008519293191093345  0.006848864621383843  0.999930779807565  1.0000
  Cr  Cr32      1.0  0.006030383669694253  0.006806278964928648  0.00011823536268209522  1.0000
