data_image0
_chemical_formula_structural       Ni30Sb12CO
_chemical_formula_sum              "Ni30 Sb12 C1 O1"
_cell_length_a       5.478857040405273
_cell_length_b       7.140145545513367
_cell_length_c       20.847322463989258
_cell_angle_alpha    90.31408958662406
_cell_angle_beta     90.0
_cell_angle_gamma    112.56092659900371

_space_group_name_H-M_alt    "P 1"
_space_group_IT_number       1

loop_
  _space_group_symop_operation_xyz
  'x, y, z'

loop_
  _atom_site_type_symbol
  _atom_site_label
  _atom_site_symmetry_multiplicity
  _atom_site_fract_x
  _atom_site_fract_y
  _atom_site_fract_z
  _atom_site_occupancy
  Ni  Ni1       1.0  0.0012735301770023483  0.007755275491220584  0.993207197718366  1.0000
  Ni  Ni2       1.0  0.0090513078036119  0.0033108309212239112  0.995826915026037  1.0000
  Ni  Ni3       1.0  0.006829085307832376  0.008866386351227237  0.9984466325588625  1.0000
  Ni  Ni4       1.0  0.006233463093863242  0.007755275491220584  0.993207197718366  1.0000
  Ni  Ni5       1.0  0.004011240808864906  0.0033108309212239112  0.995826915026037  1.0000
  Ni  Ni6       1.0  0.0017890186530550383  0.008866386351227237  0.9984466325588625  1.0000
  Ni  Ni7       1.0  0.006909005132887754  0.004066292744507441  0.9968881332610642  1.0000
  Ni  Ni8       1.0  0.004686783206450143  0.009621848739495798  0.9995078504375625  1.0000
  Ni  Ni9       1.0  0.00913122741788609  0.008510737314504115  0.9942684163107809  1.0000
  Ni  Ni10      1.0  0.0017090989994182257  0.003666480240439549  5.130559873183379e-06  1.0000
  Ni  Ni11      1.0  0.006153543309604223  0.0025553690979403807  0.9947656967910099  1.0000
  Ni  Ni12      1.0  0.003931321153794356  0.008110924527943706  0.9973854139664475  1.0000
  Ni  Ni13      1.0  0.0007753915776860725  0.0017990655882081747  0.9979184954888235  1.0000
  Ni  Ni14      1.0  0.005219835983488537  0.0006879544457090064  0.9926790613625723  1.0000
  Ni  Ni15      1.0  0.002997613898301798  0.006243510016958591  0.9952987781808873  1.0000
  Ni  Ni16      1.0  0.007842712388380312  0.005933707255492558  0.9989747694040122  1.0000
  Ni  Ni17      1.0  0.0022871570769414035  0.004822596395485905  0.9937353345635157  1.0000
  Ni  Ni18      1.0  6.493475663150269e-05  0.000378151754866103  0.9963550518710542  1.0000
  Ni  Ni19      1.0  0.008683038887342273  0.0025602251442745773  0.9989690882004734  1.0000
  Ni  Ni20      1.0  0.003127483275296329  0.0014491140017754089  0.9937296540742222  1.0000
  Ni  Ni21      1.0  0.0009052612607327197  0.0070046697142712505  0.9963493716075781  1.0000
  Ni  Ni22      1.0  0.0049892000534985746  0.0051725475581798986  0.9979241759773214  1.0000
  Ni  Ni23      1.0  0.009433644664291606  0.004061436698173245  0.9926847418516007  1.0000
  Ni  Ni24      1.0  0.00721142233849691  0.009616992128176571  0.9953044586696503  1.0000
  Ni  Ni25      1.0  0.0036289037782003715  0.0025602251442745773  0.9989690882004734  1.0000
  Ni  Ni26      1.0  0.00807334790777749  0.0014491140017754089  0.9937296540742222  1.0000
  Ni  Ni27      1.0  0.005851126063198708  0.0070046697142712505  0.9963493716075781  1.0000
  Ni  Ni28      1.0  0.009935064685979735  0.0051725475581798986  0.9979241759773214  1.0000
  Ni  Ni29      1.0  0.004379509555149706  0.004061436698173245  0.9926847418516007  1.0000
  Ni  Ni30      1.0  0.0021572873993398385  0.009616992128176571  0.9953044586696503  1.0000
  Sb  Sb1       1.0  0.0019017117184516224  0.004051705678506342  0.996886353243282  1.0000
  Sb  Sb2       1.0  0.00967948917364261  0.009607260826017153  0.9995060704181892  1.0000
  Sb  Sb3       1.0  0.004123933819707494  0.0084961499660105  0.9942666362924684  1.0000
  Sb  Sb4       1.0  0.006716392413854358  0.003681067306440648  6.911292431097305e-06  1.0000
  Sb  Sb5       1.0  0.0011608369611691913  0.00256995616394148  0.9947674768087921  1.0000
  Sb  Sb6       1.0  0.008938614698852694  0.008125511876437322  0.9973871939847601  1.0000
  Sb  Sb7       1.0  0.005775087875284412  0.0017984582293007563  0.997930573344414  1.0000
  Sb  Sb8       1.0  0.00021953245791080965  0.0006873471574247169  0.9926911392182954  1.0000
  Sb  Sb9       1.0  0.007997310089659619  0.0062429026580511715  0.9953108563938656  1.0000
  Sb  Sb10      1.0  0.0028430160907819734  0.005934314614399977  0.998962690833646  1.0000
  Sb  Sb11      1.0  0.007287460637830695  0.004823203754393324  0.9937232567079253  1.0000
  Sb  Sb12      1.0  0.005065238229241884  0.0003787589372156995  0.9963429736577444  1.0000
  C   C1        1.0  0.003764899675176188  0.0077780816769478876  0.00019462624888370023  1.0000
  O   O1        1.0  0.003764899675176188  0.0077780816769478876  0.0007702394738962141  1.0000
