data_image0
_chemical_formula_structural       HCu4Pt8Zn4Cu4Pt8Zn4Cu4Pt8Zn4Cu4Pt8Zn4
_chemical_formula_sum              "H1 Cu16 Pt32 Zn16"
_cell_length_a       8.689454078674316
_cell_length_b       8.689454078674316
_cell_length_c       106.8662338256836
_cell_angle_alpha    90.0
_cell_angle_beta     90.0
_cell_angle_gamma    90.0

_space_group_name_H-M_alt    "P 1"
_space_group_IT_number       1

loop_
  _space_group_symop_operation_xyz
  'x, y, z'

loop_
  _atom_site_type_symbol
  _atom_site_label
  _atom_site_symmetry_multiplicity
  _atom_site_fract_x
  _atom_site_fract_y
  _atom_site_fract_z
  _atom_site_occupancy
  H   H1        1.0  0.0050000000685942346  0.002499999391226172  0.00011528804603013699  1.0000
  Cu  Cu1       1.0  0.0037500000514456757  0.0037500000514456757  0.9995734411457888  1.0000
  Cu  Cu2       1.0  0.001250000553041013  0.0012500006602195039  0.9998664489870939  1.0000
  Cu  Cu3       1.0  0.0037500000514456757  0.0037500000514456757  0.9989984822997092  1.0000
  Cu  Cu4       1.0  0.0012500000171485586  0.0012500000171485586  0.999285961722749  1.0000
  Pt  Pt1       1.0  0.0037500000514456757  0.0012500000171485586  0.9997171811361838  1.0000
  Pt  Pt2       1.0  0.0012500000171485586  0.0037500000514456757  0.9997171811361838  1.0000
  Pt  Pt3       1.0  0.001250000553041013  0.0037499987653037852  0.0  1.0000
  Pt  Pt4       1.0  0.003749999622731712  0.0012500001243270495  0.9999999977689998  1.0000
  Pt  Pt5       1.0  0.0037500000514456757  0.0012500000171485586  0.9991422220112292  1.0000
  Pt  Pt6       1.0  0.0012500000171485586  0.0037500000514456757  0.9991422220112292  1.0000
  Pt  Pt7       1.0  0.0012500000171485586  0.0037500000514456757  0.9994297017131439  1.0000
  Pt  Pt8       1.0  0.0037500000514456757  0.0012500000171485586  0.9994297017131439  1.0000
  Zn  Zn1       1.0  0.0012500000171485586  0.0012500000171485586  0.9995734411457888  1.0000
  Zn  Zn2       1.0  0.0037500000514456757  0.0037500000514456757  0.9998674691118927  1.0000
  Zn  Zn3       1.0  0.0012500000171485586  0.0012500000171485586  0.9989984822997092  1.0000
  Zn  Zn4       1.0  0.0037500000514456757  0.0037500000514456757  0.999285961722749  1.0000
  Cu  Cu5       1.0  0.0037500000514456757  0.008750000548753873  0.9995734411457888  1.0000
  Cu  Cu6       1.0  0.001250000553041013  0.00625000094317072  0.9998664489870939  1.0000
  Cu  Cu7       1.0  0.0037500000514456757  0.008750000548753873  0.9989984822997092  1.0000
  Cu  Cu8       1.0  0.0012500000171485586  0.0062500000857427926  0.999285961722749  1.0000
  Pt  Pt9       1.0  0.0037500000514456757  0.0062500000857427926  0.9997171811361838  1.0000
  Pt  Pt10      1.0  0.0012500000171485586  0.008750000548753873  0.9997171811361838  1.0000
  Pt  Pt11      1.0  0.001250000553041013  0.00874999883389802  0.0  1.0000
  Pt  Pt12      1.0  0.003749999622731712  0.0062500000857427926  0.9999999977689998  1.0000
  Pt  Pt13      1.0  0.0037500000514456757  0.0062500000857427926  0.9991422220112292  1.0000
  Pt  Pt14      1.0  0.0012500000171485586  0.008750000548753873  0.9991422220112292  1.0000
  Pt  Pt15      1.0  0.0012500000171485586  0.008750000548753873  0.9994297017131439  1.0000
  Pt  Pt16      1.0  0.0037500000514456757  0.0062500000857427926  0.9994297017131439  1.0000
  Zn  Zn5       1.0  0.0012500000171485586  0.0062500000857427926  0.9995734411457888  1.0000
  Zn  Zn6       1.0  0.0037500000514456757  0.008750000548753873  0.9998674691118927  1.0000
  Zn  Zn7       1.0  0.0012500000171485586  0.0062500000857427926  0.9989984822997092  1.0000
  Zn  Zn8       1.0  0.0037500000514456757  0.008750000548753873  0.999285961722749  1.0000
  Cu  Cu9       1.0  0.008750000548753873  0.0037500000514456757  0.9995734411457888  1.0000
  Cu  Cu10      1.0  0.006250000514456756  0.0012500006602195039  0.9998664489870939  1.0000
  Cu  Cu11      1.0  0.008750000548753873  0.0037500000514456757  0.9989984822997092  1.0000
  Cu  Cu12      1.0  0.0062500000857427926  0.0012500000171485586  0.999285961722749  1.0000
  Pt  Pt17      1.0  0.008750000548753873  0.0012500000171485586  0.9997171811361838  1.0000
  Pt  Pt18      1.0  0.0062500000857427926  0.0037500000514456757  0.9997171811361838  1.0000
  Pt  Pt19      1.0  0.006250000514456756  0.0037499987653037852  0.0  1.0000
  Pt  Pt20      1.0  0.008749999691325946  0.0012500001243270495  0.9999999977689998  1.0000
  Pt  Pt21      1.0  0.008750000548753873  0.0012500000171485586  0.9991422220112292  1.0000
  Pt  Pt22      1.0  0.0062500000857427926  0.0037500000514456757  0.9991422220112292  1.0000
  Pt  Pt23      1.0  0.0062500000857427926  0.0037500000514456757  0.9994297017131439  1.0000
  Pt  Pt24      1.0  0.008750000548753873  0.0012500000171485586  0.9994297017131439  1.0000
  Zn  Zn9       1.0  0.0062500000857427926  0.0012500000171485586  0.9995734411457888  1.0000
  Zn  Zn10      1.0  0.008750000548753873  0.0037500000514456757  0.9998674691118927  1.0000
  Zn  Zn11      1.0  0.0062500000857427926  0.0012500000171485586  0.9989984822997092  1.0000
  Zn  Zn12      1.0  0.008750000548753873  0.0037500000514456757  0.999285961722749  1.0000
  Cu  Cu13      1.0  0.008750000548753873  0.008750000548753873  0.9995734411457888  1.0000
  Cu  Cu14      1.0  0.006250000514456756  0.00625000094317072  0.9998664489870939  1.0000
  Cu  Cu15      1.0  0.008750000548753873  0.008750000548753873  0.9989984822997092  1.0000
  Cu  Cu16      1.0  0.0062500000857427926  0.0062500000857427926  0.999285961722749  1.0000
  Pt  Pt25      1.0  0.008750000548753873  0.0062500000857427926  0.9997171811361838  1.0000
  Pt  Pt26      1.0  0.0062500000857427926  0.008750000548753873  0.9997171811361838  1.0000
  Pt  Pt27      1.0  0.006250000514456756  0.00874999883389802  0.0  1.0000
  Pt  Pt28      1.0  0.008749999691325946  0.0062500000857427926  0.9999999977689998  1.0000
  Pt  Pt29      1.0  0.008750000548753873  0.0062500000857427926  0.9991422220112292  1.0000
  Pt  Pt30      1.0  0.0062500000857427926  0.008750000548753873  0.9991422220112292  1.0000
  Pt  Pt31      1.0  0.0062500000857427926  0.008750000548753873  0.9994297017131439  1.0000
  Pt  Pt32      1.0  0.008750000548753873  0.0062500000857427926  0.9994297017131439  1.0000
  Zn  Zn13      1.0  0.0062500000857427926  0.0062500000857427926  0.9995734411457888  1.0000
  Zn  Zn14      1.0  0.008750000548753873  0.008750000548753873  0.9998674691118927  1.0000
  Zn  Zn15      1.0  0.0062500000857427926  0.0062500000857427926  0.9989984822997092  1.0000
  Zn  Zn16      1.0  0.008750000548753873  0.008750000548753873  0.999285961722749  1.0000
