data_image0
_chemical_formula_structural       COPd16Sb32
_chemical_formula_sum              "C1 O1 Pd16 Sb32"
_cell_length_a       9.34865951538086
_cell_length_b       11.449722290039062
_cell_length_c       102.38470458984375
_cell_angle_alpha    90.0
_cell_angle_beta     90.0
_cell_angle_gamma    90.0

_space_group_name_H-M_alt    "P 1"
_space_group_IT_number       1

loop_
  _space_group_symop_operation_xyz
  'x, y, z'

loop_
  _atom_site_type_symbol
  _atom_site_label
  _atom_site_symmetry_multiplicity
  _atom_site_fract_x
  _atom_site_fract_y
  _atom_site_fract_z
  _atom_site_occupancy
  C   C1        1.0  0.0026071795370165404  0.003457304214659721  9.689705049297425e-05  1.0000
  O   O1        1.0  0.0026071795370165404  0.003457304214659721  0.00021410171267491362  1.0000
  Pd  Pd1       1.0  0.009944761843069007  0.0035394701692184113  0.9999306433613457  1.0000
  Pd  Pd2       1.0  0.005055237280266414  0.003591965500369652  0.9991583658408811  1.0000
  Pd  Pd3       1.0  5.523749569677237e-05  0.00025863205071984793  0.9994219529121144  1.0000
  Pd  Pd4       1.0  0.005055237280266414  0.00692529913303488  0.9996855396922659  1.0000
  Pd  Pd5       1.0  0.0025552373599631944  0.00692529913303488  0.9992901592309569  1.0000
  Pd  Pd6       1.0  0.007555237200569635  0.003591965500369652  0.9995537460111084  1.0000
  Pd  Pd7       1.0  0.00257607587624378  0.0001364758531478294  0.9998151310486515  1.0000
  Pd  Pd8       1.0  0.007555237200569635  0.00025863205071984793  0.9990265727418872  1.0000
  Pd  Pd9       1.0  0.007555237200569635  0.00692529913303488  0.9992901592309569  1.0000
  Pd  Pd10      1.0  0.0025552373599631944  0.003591965500369652  0.9995537460111084  1.0000
  Pd  Pd11      1.0  0.007615707132313487  0.0002102695535645421  0.9998150175267561  1.0000
  Pd  Pd12      1.0  0.0025552373599631944  0.00025863205071984793  0.9990265727418872  1.0000
  Pd  Pd13      1.0  5.523749569677237e-05  0.003591965500369652  0.9991583658408811  1.0000
  Pd  Pd14      1.0  0.005055237280266414  0.00025863205071984793  0.9994219529121144  1.0000
  Pd  Pd15      1.0  5.523749569677237e-05  0.00692529913303488  0.9996855396922659  1.0000
  Pd  Pd16      1.0  0.005269596513693055  0.0033751379347402746  0.9999248089180827  1.0000
  Sb  Sb1       1.0  5.523749569677237e-05  0.005682484816428651  0.9992878864643934  1.0000
  Sb  Sb2       1.0  0.005055237280266414  0.002349151671804556  0.999551473244545  1.0000
  Sb  Sb3       1.0  9.539879512535283e-05  0.008933782964198281  0.9998341218063531  1.0000
  Sb  Sb4       1.0  0.005055237280266414  0.009015818774454636  0.9990242996842419  1.0000
  Sb  Sb5       1.0  0.0012836787235036898  0.002349151671804556  0.9993571924548174  1.0000
  Sb  Sb6       1.0  0.006283678663731105  0.009015818774454636  0.9996207792349688  1.0000
  Sb  Sb7       1.0  0.00122198484846263  0.005616899896709153  0.9998868012053189  1.0000
  Sb  Sb8       1.0  0.006283678663731105  0.005682484816428651  0.9990936056746659  1.0000
  Sb  Sb9       1.0  0.0025552373599631944  0.007320406823384562  0.9995537460111084  1.0000
  Sb  Sb10      1.0  0.00759502581793124  0.004098524216189801  0.9998096819976694  1.0000
  Sb  Sb11      1.0  0.0025552373599631944  0.003987073516080089  0.9990265727418872  1.0000
  Sb  Sb12      1.0  0.007555237200569635  0.0006537400460952379  0.9992901592309569  1.0000
  Sb  Sb13      1.0  0.006326796215588844  0.005682484816428651  0.9994889858448931  1.0000
  Sb  Sb14      1.0  0.001373769756672342  0.002296572560258686  0.9997543851913088  1.0000
  Sb  Sb15      1.0  0.0069213066982019384  0.008572402820520637  0.0  1.0000
  Sb  Sb16      1.0  0.0013267961757404533  0.009015818774454636  0.9992253990647416  1.0000
  Sb  Sb17      1.0  5.523749569677237e-05  0.00483477916625437  0.9995560193598354  1.0000
  Sb  Sb18      1.0  0.005064210739198473  0.001298348842577785  0.9998155531172372  1.0000
  Sb  Sb19      1.0  5.523749569677237e-05  0.0015014458589498968  0.9990288455084506  1.0000
  Sb  Sb20      1.0  0.005055237280266414  0.008168112798919599  0.9992924322886022  1.0000
  Sb  Sb21      1.0  0.008826796135892063  0.008168112798919599  0.9994867130783297  1.0000
  Sb  Sb22      1.0  0.0038034495220998533  0.004818300294692512  0.9997609811045168  1.0000
  Sb  Sb23      1.0  0.007669845951862635  0.002009740211722083  0.9999973028361966  1.0000
  Sb  Sb24      1.0  0.0038267958968017236  0.0015014458589498968  0.9992231262981782  1.0000
  Sb  Sb25      1.0  0.007555237200569635  0.0031968574846592147  0.9992901592309569  1.0000
  Sb  Sb26      1.0  0.0025552373599631944  0.00986352409926816  0.9995537460111084  1.0000
  Sb  Sb27      1.0  0.00752438259223404  0.006704793689421472  0.999811767889728  1.0000
  Sb  Sb28      1.0  0.0025552373599631944  0.006530190791963687  0.9990265727418872  1.0000
  Sb  Sb29      1.0  0.0037836787434278847  0.00483477916625437  0.999354919688254  1.0000
  Sb  Sb30      1.0  0.008783678584034326  0.0015014458589498968  0.9996185064684054  1.0000
  Sb  Sb31      1.0  0.003960757018672254  0.008147410094025406  0.9998888940833404  1.0000
  Sb  Sb32      1.0  0.008783678584034326  0.008168112798919599  0.9990913329081025  1.0000
