data_image0
_chemical_formula_structural       COCa8
_chemical_formula_sum              "C1 O1 Ca8"
_cell_length_a       6.5571088790893555
_cell_length_b       6.859800338745117
_cell_length_c       101.6840591430664
_cell_angle_alpha    90.0
_cell_angle_beta     90.0
_cell_angle_gamma    90.0

_space_group_name_H-M_alt    "P 1"
_space_group_IT_number       1

loop_
  _space_group_symop_operation_xyz
  'x, y, z'

loop_
  _atom_site_type_symbol
  _atom_site_label
  _atom_site_symmetry_multiplicity
  _atom_site_fract_x
  _atom_site_fract_y
  _atom_site_fract_z
  _atom_site_occupancy
  C   C1        1.0  0.0012499967957467733  0.009166658542473526  0.9999759181759467  1.0000
  O   O1        1.0  0.0012499967957467733  0.009166658542473526  9.393101315860456e-05  1.0000
  Ca  Ca1       1.0  0.008749978138357418  0.0025000081024707  0.9996183886996018  1.0000
  Ca  Ca2       1.0  0.008749978138357418  0.007500008558641973  0.9994236429281644  1.0000
  Ca  Ca3       1.0  0.003749977888380216  0.005833341739918216  0.9996183886996018  1.0000
  Ca  Ca4       1.0  0.003749977888380216  0.000833341555277462  0.9994236429281644  1.0000
  Ca  Ca5       1.0  0.008749984955917474  0.0023326733469082954  1.1137323394407819e-08  1.0000
  Ca  Ca6       1.0  0.00875000370420763  0.007383759826537442  0.9998055862966523  1.0000
  Ca  Ca7       1.0  0.0037499937960203482  0.006000899965098119  0.0  1.0000
  Ca  Ca8       1.0  0.0037499901031753176  0.0009495576358370307  0.9998055769178537  1.0000
