data_image0
_chemical_formula_structural       COCa6Pb2
_chemical_formula_sum              "C1 O1 Ca6 Pb2"
_cell_length_a       5.170364856719971
_cell_length_b       7.312000274658203
_cell_length_c       99.24800109863281
_cell_angle_alpha    90.0
_cell_angle_beta     90.0
_cell_angle_gamma    90.0

_space_group_name_H-M_alt    "P 1"
_space_group_IT_number       1

loop_
  _space_group_symop_operation_xyz
  'x, y, z'

loop_
  _atom_site_type_symbol
  _atom_site_label
  _atom_site_symmetry_multiplicity
  _atom_site_fract_x
  _atom_site_fract_y
  _atom_site_fract_z
  _atom_site_occupancy
  C   C1        1.0  0.009999999654156062  0.007500000529855274  0.00014219162058060823  1.0000
  O   O1        1.0  0.009999999654156062  0.007500000529855274  0.0002631011017375076  1.0000
  Ca  Ca1       1.0  0.005000000907840337  0.0025000013653962835  0.9994217941738733  1.0000
  Ca  Ca2       1.0  0.005000004870635461  0.007549303053642352  0.9998047075287652  1.0000
  Ca  Ca3       1.0  1.9000001219665592e-09  0.005000001711840116  0.0  1.0000
  Ca  Ca4       1.0  8.000000603955271e-10  1.3000000538722722e-09  0.9996059792384812  1.0000
  Ca  Ca5       1.0  0.005000000907840337  0.007500001548807724  0.9994217941738733  1.0000
  Ca  Ca6       1.0  0.004999996945045214  0.00245068355732245  0.9998047060273585  1.0000
  Pb  Pb1       1.0  8.000000603955271e-10  0.005000001202363891  0.9996059792384812  1.0000
  Pb  Pb2       1.0  0.009999996772123244  0.009999998328917981  0.9999353488277478  1.0000
