data_image0
_chemical_formula_structural       COAl48Ti24
_chemical_formula_sum              "C1 O1 Al48 Ti24"
_cell_length_a       12.877284952686848
_cell_length_b       8.975132296497938
_cell_length_c       102.03581237792969
_cell_angle_alpha    94.0465392436518
_cell_angle_beta     99.05233760211016
_cell_angle_gamma    73.6921351972263

_space_group_name_H-M_alt    "P 1"
_space_group_IT_number       1

loop_
  _space_group_symop_operation_xyz
  'x, y, z'

loop_
  _atom_site_type_symbol
  _atom_site_label
  _atom_site_symmetry_multiplicity
  _atom_site_fract_x
  _atom_site_fract_y
  _atom_site_fract_z
  _atom_site_occupancy
  C   C1        1.0  0.009254105833724687  0.004203825056784133  0.00020535794777677618  1.0000
  O   O1        1.0  0.009254105833724687  0.004203825056784133  0.0003229633691910117  1.0000
  Al  Al1       1.0  0.0007458939195676916  0.006305712333220869  0.9997254652853786  1.0000
  Al  Al2       1.0  0.0007562860212620498  0.008529866761008061  6.796282819791678e-05  1.0000
  Al  Al3       1.0  0.0007529150357323277  0.002356417325616727  0.9999098216085304  1.0000
  Al  Al4       1.0  0.0057565921884662405  0.008498225120354499  7.306899574637617e-05  1.0000
  Al  Al5       1.0  0.005760512098454045  0.002428112317513933  0.9999153757421744  1.0000
  Al  Al6       1.0  0.0057458936058530615  0.006305712355355728  0.9997254652442376  1.0000
  Al  Al7       1.0  0.007475097174294477  0.0006332443419553783  0.9997556270687812  1.0000
  Al  Al8       1.0  0.007434185740776073  0.002863309502986926  9.682306194215973e-05  1.0000
  Al  Al9       1.0  0.007427433261799412  0.006771947454881674  0.9999333047554257  1.0000
  Al  Al10      1.0  0.009049691208314038  0.007153034186499334  0.000125470908556926  1.0000
  Al  Al11      1.0  0.00904833340266325  0.0011334272144440116  0.9999589453986978  1.0000
  Al  Al12      1.0  0.00901669086586193  0.005033735594739081  0.9997825163704929  1.0000
  Al  Al13      1.0  0.0057458936058530615  0.009361267870225428  0.9998126780927565  1.0000
  Al  Al14      1.0  0.0057458936058530615  0.003250156840486027  0.9996382523957185  1.0000
  Al  Al15      1.0  0.005767302345017224  0.005538038605003923  2.0316256543369673e-06  1.0000
  Al  Al16      1.0  0.0007458939195676916  0.00936126784809057  0.9998126781338976  1.0000
  Al  Al17      1.0  0.0007458939195676916  0.0032501568183511682  0.9996382524368596  1.0000
  Al  Al18      1.0  0.0007562372127480213  0.005430545127244882  1.4432272770482647e-06  1.0000
  Al  Al19      1.0  0.002491899266917013  0.009790836932085217  2.583502469940153e-05  1.0000
  Al  Al20      1.0  0.002458112048982893  0.0037046374125198375  0.9998382449557247  1.0000
  Al  Al21      1.0  0.0024750971072874696  0.007577688819855533  0.9996684141312636  1.0000
  Al  Al22      1.0  0.0040166906465662665  0.0019781802650163105  0.999695303553818  1.0000
  Al  Al23      1.0  0.004004216682809426  0.004204957176740273  4.174566042422275e-05  1.0000
  Al  Al24      1.0  0.004032507041729957  0.00805690919386051  0.9998799586913443  1.0000
  Al  Al25      1.0  0.0007458939195676916  0.007972378977695252  0.9992021879472668  1.0000
  Al  Al26      1.0  0.0007458939195676916  0.00019460104341563345  0.9995510395867263  1.0000
  Al  Al27      1.0  0.0007458939195676916  0.004083490140588359  0.9993766137678037  1.0000
  Al  Al28      1.0  0.0057458936058530615  0.00019460111756365868  0.9995510395459081  1.0000
  Al  Al29      1.0  0.0057458936058530615  0.004083490162723218  0.9993766137266625  1.0000
  Al  Al30      1.0  0.0057458936058530615  0.00797237899983011  0.9992021881982027  1.0000
  Al  Al31      1.0  0.007475097174294477  0.0022999109864297604  0.9992323497306693  1.0000
  Al  Al32      1.0  0.007475097174294477  0.00452213317906227  0.9995812012482442  1.0000
  Al  Al33      1.0  0.007475097174294477  0.008411022016169162  0.9994067757197844  1.0000
  Al  Al34      1.0  0.00901669086586193  0.008922624431845973  0.999608090549956  1.0000
  Al  Al35      1.0  0.00901669086586193  0.002811513402106572  0.999433664852918  1.0000
  Al  Al36      1.0  0.00901669086586193  0.0067004022392134635  0.9992592390323811  1.0000
  Al  Al37      1.0  0.0057458936058530615  0.0010279344398008497  0.9992894008768521  1.0000
  Al  Al38      1.0  0.0057458936058530615  0.004916823484960409  0.9991149750576067  1.0000
  Al  Al39      1.0  0.0057458936058530615  0.0071390456775929185  0.9994638265751816  1.0000
  Al  Al40      1.0  0.0007458939195676916  0.0010279344176659913  0.9992894009179932  1.0000
  Al  Al41      1.0  0.0007458939195676916  0.00491682346282555  0.9991149750987478  1.0000
  Al  Al42      1.0  0.0007458939195676916  0.00713904565545806  0.9994638266163227  1.0000
  Al  Al43      1.0  0.0024750971072874696  0.0014665775820634642  0.9994939884329342  1.0000
  Al  Al44      1.0  0.0024750971072874696  0.005355466627223023  0.9993195626136887  1.0000
  Al  Al45      1.0  0.0024750971072874696  0.009244355464329916  0.9991451367931519  1.0000
  Al  Al46      1.0  0.0040166906465662665  0.003644846909490693  0.9991720262157061  1.0000
  Al  Al47      1.0  0.0040166906465662665  0.005867069102123203  0.999520877733281  1.0000
  Al  Al48      1.0  0.0040166906465662665  0.009755957939230094  0.9993464522048212  1.0000
  Ti  Ti1       1.0  0.009155634770888857  0.008050875464354025  0.9998672259756518  1.0000
  Ti  Ti2       1.0  0.009185806199279837  0.0019124130032603798  0.9996982533288471  1.0000
  Ti  Ti3       1.0  0.00905068900358366  0.004147824699198979  3.3400749581119884e-05  1.0000
  Ti  Ti4       1.0  0.007305981231721949  0.007643456007434444  0.9996654642792648  1.0000
  Ti  Ti5       1.0  0.0073780941740958835  0.009805399428872288  1.1834741606640175e-05  1.0000
  Ti  Ti6       1.0  0.007337759000849191  0.0037698635090956845  0.999835420571967  1.0000
  Ti  Ti7       1.0  0.004185806284561484  0.008856857421937165  0.9996110403939859  1.0000
  Ti  Ti8       1.0  0.004128404730868275  0.001093195521433578  0.9999559961997386  1.0000
  Ti  Ti9       1.0  0.004185806284561484  0.004967968584830274  0.9997854662145228  1.0000
  Ti  Ti10      1.0  0.002305981469292252  0.0006990114548820102  0.9997526772898043  1.0000
  Ti  Ti11      1.0  0.002444377744314667  0.0028797622540325785  8.443743262164584e-05  1.0000
  Ti  Ti12      1.0  0.00232041812923879  0.006755480408610353  0.9999215144501078  1.0000
  Ti  Ti13      1.0  0.009185806199279837  0.009690190677474163  0.9993494019798504  1.0000
  Ti  Ti14      1.0  0.009185806199279837  0.003579079647734762  0.9991749759907353  1.0000
  Ti  Ti15      1.0  0.009185806199279837  0.0058013018403672715  0.9995238275083103  1.0000
  Ti  Ti16      1.0  0.007305981231721949  0.009310122651908826  0.9991421872332301  1.0000
  Ti  Ti17      1.0  0.007305981231721949  0.0015323449776950431  0.9994910385822268  1.0000
  Ti  Ti18      1.0  0.007305981231721949  0.005421233814801935  0.9993166127616899  1.0000
  Ti  Ti19      1.0  0.004185806284561484  0.0005235239915125874  0.9990877631780816  1.0000
  Ti  Ti20      1.0  0.004185806284561484  0.0027457463921977646  0.9994366146969479  1.0000
  Ti  Ti21      1.0  0.004185806284561484  0.006634635229304657  0.9992621888764109  1.0000
  Ti  Ti22      1.0  0.002305981469292252  0.002365678099356392  0.9992293999516925  1.0000
  Ti  Ti23      1.0  0.002305981469292252  0.00458790050004157  0.9995782514705588  1.0000
  Ti  Ti24      1.0  0.002305981469292252  0.00847678933714846  0.9994038256500218  1.0000
