data_image0
_chemical_formula_structural       HSi9Pd18
_chemical_formula_sum              "H1 Si9 Pd18"
_cell_length_a       11.390435218811035
_cell_length_b       7.4664345549879965
_cell_length_c       99.86573791503906
_cell_angle_alpha    99.41908974264348
_cell_angle_beta     90.0
_cell_angle_gamma    40.2904548717642

_space_group_name_H-M_alt    "P 1"
_space_group_IT_number       1

loop_
  _space_group_symop_operation_xyz
  'x, y, z'

loop_
  _atom_site_type_symbol
  _atom_site_label
  _atom_site_symmetry_multiplicity
  _atom_site_fract_x
  _atom_site_fract_y
  _atom_site_fract_z
  _atom_site_occupancy
  H   H1        1.0  0.00995666235827862  0.00742453078461463  0.00016205167609179886  1.0000
  Si  Si1       1.0  0.006710004973766938  0.0035187329789890366  0.999735856237652  1.0000
  Si  Si2       1.0  4.333844876543116e-05  0.006852066264471114  0.9994866406765018  1.0000
  Si  Si3       1.0  0.003122482101782644  0.0006909152713846373  2.8762173538544337e-06  1.0000
  Si  Si4       1.0  4.333824605014424e-05  0.0035187329789890366  0.999735856237652  1.0000
  Si  Si5       1.0  0.0033766718126238284  0.006852066264471114  0.9994866406765018  1.0000
  Si  Si6       1.0  0.0064567771234771655  0.0006907645897715604  2.7902181364419586e-06  1.0000
  Si  Si7       1.0  0.0050433384208766535  0.00018539935705281203  0.9996112484180276  1.0000
  Si  Si8       1.0  0.008145164383472254  0.003980695389900205  9.600576980437255e-05  1.0000
  Si  Si9       1.0  0.0016617716651511558  0.006947194562494558  0.9998697042503992  1.0000
  Pd  Pd1       1.0  0.009197649770089331  0.0018757010687597293  0.9998458276814116  1.0000
  Pd  Pd2       1.0  0.0024921578805025737  0.0052877604378009715  0.999603595486006  1.0000
  Pd  Pd3       1.0  0.0056584765083328645  0.008954597043420155  0.00010956482920221887  1.0000
  Pd  Pd4       1.0  0.005825491562544394  0.005967552535065146  0.9995527709031129  1.0000
  Pd  Pd5       1.0  0.008925207835103269  0.009814601359220685  5.6059454165004934e-05  1.0000
  Pd  Pd6       1.0  0.0024921580956608286  0.0026342190502028334  0.9998019867602476  1.0000
  Pd  Pd7       1.0  0.008479033173934532  0.005967552535065146  0.9995527709031129  1.0000
  Pd  Pd8       1.0  0.001529234491045131  0.009812475168387935  5.610804492707004e-05  1.0000
  Pd  Pd9       1.0  0.005145699052942457  0.0026342190502028334  0.9998019867602476  1.0000
  Pd  Pd10      1.0  0.006356270815542034  0.007559534332242989  0.999807570418276  1.0000
  Pd  Pd11      1.0  0.009689604350249405  0.0008928672628282456  0.9995583547811616  1.0000
  Pd  Pd12      1.0  0.0029585151494079982  0.004354964790535016  5.036759968858656e-05  1.0000
  Pd  Pd13      1.0  0.00302293774689865  0.008164999471466922  0.9997623032465571  1.0000
  Pd  Pd14      1.0  0.006356271431141198  0.001498332102981825  0.9995130873073595  1.0000
  Pd  Pd15      1.0  0.009393879178865713  0.005288793227421531  0.9999921079865681  1.0000
  Pd  Pd16      1.0  0.009084139399069994  0.008164999471466922  0.9997623032465571  1.0000
  Pd  Pd17      1.0  0.00241747299173735  0.001498332102981825  0.9995130873073595  1.0000
  Pd  Pd18      1.0  0.005586292549488459  0.005294295723164429  0.9999920571370193  1.0000
