data_image0
_chemical_formula_structural       HSb8Os4Sb8Os4Sb8Os4
_chemical_formula_sum              "H1 Sb24 Os12"
_cell_length_a       6.869960985813302
_cell_length_b       13.975255586776951
_cell_length_c       105.96033477783203
_cell_angle_alpha    103.5280949426442
_cell_angle_beta     118.41518875144253
_cell_angle_gamma    83.60895702916554

_space_group_name_H-M_alt    "P 1"
_space_group_IT_number       1

loop_
  _space_group_symop_operation_xyz
  'x, y, z'

loop_
  _atom_site_type_symbol
  _atom_site_label
  _atom_site_symmetry_multiplicity
  _atom_site_fract_x
  _atom_site_fract_y
  _atom_site_fract_z
  _atom_site_occupancy
  H   H1        1.0  0.0073635287432358525  0.008631621439456512  0.00042027563694667955  1.0000
  Sb  Sb1       1.0  0.0032503936956609233  0.004350427431562941  0.9994631950492586  1.0000
  Sb  Sb2       1.0  0.0032503936956609233  0.009350427343828521  0.9996174566225339  1.0000
  Sb  Sb3       1.0  0.006887728892940823  0.0007740003130100878  0.9994650742045016  1.0000
  Sb  Sb4       1.0  0.006887728892940823  0.005774000088190638  0.9996193357735473  1.0000
  Sb  Sb5       1.0  0.0018877286463261516  0.0018504274754301512  0.9994982842982383  1.0000
  Sb  Sb6       1.0  0.0018877286463261516  0.0068504273876957315  0.9996525458715135  1.0000
  Sb  Sb7       1.0  0.008250393942275594  0.003274000406227908  0.9994299846784921  1.0000
  Sb  Sb8       1.0  0.008250393942275594  0.008274000592663549  0.999584246260226  1.0000
  Os  Os1       1.0  0.005069061294300873  0.0025622138037439996  0.9994641346247655  1.0000
  Os  Os2       1.0  0.005069061294300873  0.0075622139901796405  0.9996183962064994  1.0000
  Os  Os3       1.0  6.90611006698227e-05  6.221389901809568e-05  0.9996955267606965  1.0000
  Os  Os4       1.0  6.90611006698227e-05  0.00506221403404685  0.9995412652451323  1.0000
  Sb  Sb9       1.0  0.0032503936956609233  0.004350427431562941  0.9997717181449708  1.0000
  Sb  Sb10      1.0  0.0032503936956609233  0.009350427343828521  0.9999259797182459  1.0000
  Sb  Sb11      1.0  0.006887728892940823  0.0007740003130100878  0.9997735973002136  1.0000
  Sb  Sb12      1.0  0.006887728892940823  0.005774000088190638  0.9999278588692594  1.0000
  Sb  Sb13      1.0  0.0018877286463261516  0.0018504274754301512  0.9998068073939504  1.0000
  Sb  Sb14      1.0  0.0018877286463261516  0.0068504273876957315  0.9999610689672256  1.0000
  Sb  Sb15      1.0  0.008250393942275594  0.003274000406227908  0.9997385077742041  1.0000
  Sb  Sb16      1.0  0.008250393942275594  0.008274000592663549  0.9998927693559381  1.0000
  Os  Os5       1.0  0.005069061294300873  0.0025622138037439996  0.9997726577204775  1.0000
  Os  Os6       1.0  0.005069061294300873  0.0075622139901796405  0.9999269193022114  1.0000
  Os  Os7       1.0  6.90611006698227e-05  6.221389901809568e-05  4.050137667778183e-06  1.0000
  Os  Os8       1.0  6.90611006698227e-05  0.00506221403404685  0.9998497883408444  1.0000
  Sb  Sb17      1.0  0.00322183910770077  0.004344678359564988  9.775106533511832e-05  1.0000
  Sb  Sb18      1.0  0.003113014835253508  0.009236219063439986  0.00022845982461713055  1.0000
  Sb  Sb19      1.0  0.006825421079754001  0.0008126491753815604  8.233830612999976e-05  1.0000
  Sb  Sb20      1.0  0.007040412968104239  0.0057879038002970895  0.00024572472185604207  1.0000
  Sb  Sb21      1.0  0.0019882361472593414  0.0018940502624961186  0.0001221884781336109  1.0000
  Sb  Sb22      1.0  0.002154091603737179  0.006797648006035285  0.00028197639469550173  1.0000
  Sb  Sb23      1.0  0.008242248876226268  0.0033187361866543453  6.579191942687454e-05  1.0000
  Sb  Sb24      1.0  0.008328255126231199  0.008212066124343956  0.0002123839256386476  1.0000
  Os  Os9       1.0  0.004877816240897946  0.002537673389971633  6.381410842186556e-05  1.0000
  Os  Os10      1.0  0.004969943775307598  0.00749960122513045  0.00021938340588679168  1.0000
  Os  Os11      1.0  0.009903932981180736  0.009937786251090012  0.0002730115934873972  1.0000
  Os  Os12      1.0  0.0099309391372748  0.005151424585002159  0.00014921071330344595  1.0000
