data_image0
_chemical_formula_structural       HMn18Ir6Mn18Ir6
_chemical_formula_sum              "H1 Mn36 Ir12"
_cell_length_a       5.188294254114189
_cell_length_b       9.639834941820626
_cell_length_c       109.5364990234375
_cell_angle_alpha    84.5023484682397
_cell_angle_beta     113.18391782355044
_cell_angle_gamma    74.38886357098936

_space_group_name_H-M_alt    "P 1"
_space_group_IT_number       1

loop_
  _space_group_symop_operation_xyz
  'x, y, z'

loop_
  _atom_site_type_symbol
  _atom_site_label
  _atom_site_symmetry_multiplicity
  _atom_site_fract_x
  _atom_site_fract_y
  _atom_site_fract_z
  _atom_site_occupancy
  H   H1        1.0  0.005519147433013017  0.0033274797434829904  0.00012558840044140095  1.0000
  Mn  Mn1       1.0  0.0030828055074405137  0.00031003725950392967  0.9994140059811084  1.0000
  Mn  Mn2       1.0  0.0030828054634685826  0.003643370920450183  0.9990129577650584  1.0000
  Mn  Mn3       1.0  0.003082805159675567  0.006976703808724455  0.9992134818802629  1.0000
  Mn  Mn4       1.0  0.008384537870464993  0.008542793292470714  0.9990250587036376  1.0000
  Mn  Mn5       1.0  0.008384538530994261  0.0018761262796469994  0.9992255830863006  1.0000
  Mn  Mn6       1.0  0.008384538452270739  0.005209459992104718  0.9994261069266764  1.0000
  Mn  Mn7       1.0  0.008384538269737197  0.00031003725950392967  0.9994140060894835  1.0000
  Mn  Mn8       1.0  0.008384538225765268  0.003643370920450183  0.9990129578734335  1.0000
  Mn  Mn9       1.0  0.008384538703067204  0.006976703808724455  0.9992134820032033  1.0000
  Mn  Mn10      1.0  0.006818448818459666  0.009687429977374384  0.9991881285288234  1.0000
  Mn  Mn11      1.0  0.0068184492009762026  0.003020763376642393  0.9993886526307512  1.0000
  Mn  Mn12      1.0  0.00681844940026541  0.006354096677008389  0.9989876044222775  1.0000
  Mn  Mn13      1.0  0.0015167164769509676  0.0014546742019649272  0.9989755034749391  1.0000
  Mn  Mn14      1.0  0.001516716411463255  0.004788007605353853  0.9991760275902443  1.0000
  Mn  Mn15      1.0  0.001516716332739732  0.008121341317811573  0.9993765517026968  1.0000
  Mn  Mn16      1.0  0.0015167160561629816  0.009687429977374384  0.9991881284204484  1.0000
  Mn  Mn17      1.0  0.001516716438679519  0.003020763376642393  0.9993886530665294  1.0000
  Mn  Mn18      1.0  0.0015167162474212501  0.006354096677008389  0.9989876043066198  1.0000
  Ir  Ir1       1.0  0.0032839605920926603  0.008609844736761874  0.9990169914259232  1.0000
  Ir  Ir2       1.0  0.003283960584061722  0.0019431781360298823  0.999217515792645  1.0000
  Ir  Ir3       1.0  0.003283960392803453  0.005276511436395878  0.9994180399064735  1.0000
  Ir  Ir4       1.0  0.00661729448015088  0.0013876225516279061  0.9989835707679068  1.0000
  Ir  Ir5       1.0  0.006617293689835588  0.004720956161062694  0.9991840948679587  1.0000
  Ir  Ir6       1.0  0.006617293611112066  0.008054289873520413  0.9993846192524878  1.0000
  Mn  Mn19      1.0  0.0028257947689890556  0.00030391805799381984  9.1477799423529e-06  1.0000
  Mn  Mn20      1.0  0.0030828054634685826  0.003643370920450183  0.9996145306387965  1.0000
  Mn  Mn21      1.0  0.0030828998469636807  0.006976973316711465  0.9998156424770197  1.0000
  Mn  Mn22      1.0  0.008384537870464993  0.008542793292470714  0.9996266315773755  1.0000
  Mn  Mn23      1.0  0.008348965815461488  0.0018811107350856554  0.9998232202370788  1.0000
  Mn  Mn24      1.0  0.008233765106840627  0.005243577065873172  1.1205359590131861e-05  1.0000
  Mn  Mn25      1.0  0.00854388324107639  0.0003047298529329036  9.302542497067542e-06  1.0000
  Mn  Mn26      1.0  0.008384538225765268  0.003643370920450183  0.9996145302030183  1.0000
  Mn  Mn27      1.0  0.008395040839449476  0.00697640463013337  0.9998156716886347  1.0000
  Mn  Mn28      1.0  0.006859885091914439  0.00969608225519589  0.9997931246091347  1.0000
  Mn  Mn29      1.0  0.006756141020722465  0.003026967211490167  0.9999832384029974  1.0000
  Mn  Mn30      1.0  0.00681844940026541  0.006354096677008389  0.9995891772960156  1.0000
  Mn  Mn31      1.0  0.0015167164769509676  0.0014546742019649272  0.9995770763486772  1.0000
  Mn  Mn32      1.0  0.0015396598417275946  0.004822840070353882  0.9997825095537134  1.0000
  Mn  Mn33      1.0  0.0014839236981298506  0.008118226728567195  0.9999739435813777  1.0000
  Mn  Mn34      1.0  0.0015226701739316235  0.009695684174591223  0.9997930533560045  1.0000
  Mn  Mn35      1.0  0.001456116870117183  0.003026262740689259  0.999983386014053  1.0000
  Mn  Mn36      1.0  0.0015167162474212501  0.006354096677008389  0.9995891771803579  1.0000
  Ir  Ir7       1.0  0.0032839605920926603  0.008609844736761874  0.9996185640275845  1.0000
  Ir  Ir8       1.0  0.003273865787297679  0.001978445151752085  0.9998199923004625  1.0000
  Ir  Ir9       1.0  0.003285196160752691  0.00523904611737596  1.7087285337054136e-05  1.0000
  Ir  Ir10      1.0  0.00661729448015088  0.0013876225516279061  0.9995851433695682  1.0000
  Ir  Ir11      1.0  0.006613509321787863  0.00474055647969597  0.9997863670435209  1.0000
  Ir  Ir12      1.0  0.006601376822169467  0.008101314484244724  0.9999869903645648  1.0000
