data_image0
_chemical_formula_structural       COAl6Sb6
_chemical_formula_sum              "C1 O1 Al6 Sb6"
_cell_length_a       6.282505512237549
_cell_length_b       7.69446613811732
_cell_length_c       103.83232879638672
_cell_angle_alpha    94.3477531210488
_cell_angle_beta     90.0
_cell_angle_gamma    114.09484344286633

_space_group_name_H-M_alt    "P 1"
_space_group_IT_number       1

loop_
  _space_group_symop_operation_xyz
  'x, y, z'

loop_
  _atom_site_type_symbol
  _atom_site_label
  _atom_site_symmetry_multiplicity
  _atom_site_fract_x
  _atom_site_fract_y
  _atom_site_fract_z
  _atom_site_occupancy
  C   C1        1.0  0.007530266170688128  0.009198315716741304  0.00016678453450908338  1.0000
  O   O1        1.0  0.007530266170688128  0.009198315716741304  0.0002823557102478737  1.0000
  Al  Al1       1.0  0.0017697803252936242  0.0036213078996319187  0.9998190641690835  1.0000
  Al  Al2       1.0  0.007604166402371435  0.005212610626107871  0.9995330074143888  1.0000
  Al  Al3       1.0  0.0037214981135042674  0.0010351805569123113  0.9999853048022098  1.0000
  Al  Al4       1.0  0.004687500131096374  0.00937927761209464  0.9996687725587011  1.0000
  Al  Al5       1.0  0.0005208333449306079  0.0010459438396961654  0.9993972422711976  1.0000
  Al  Al6       1.0  0.009112571145886726  0.007882074528358247  0.9999436453829293  1.0000
  Sb  Sb1       1.0  0.003645833434244369  0.0022959440020172174  0.9996008900777347  1.0000
  Sb  Sb2       1.0  0.009479166307036416  0.00396261053031184  0.999329359895249  1.0000
  Sb  Sb3       1.0  0.007636300052410239  0.0006207227551234783  0.9998817174003486  1.0000
  Sb  Sb4       1.0  0.006562499761853762  0.008129277250198524  0.9994651247510429  1.0000
  Sb  Sb5       1.0  0.004839566598243637  0.004908114959256117  2.757312548241385e-05  1.0000
  Sb  Sb6       1.0  0.0007291667560116713  0.006462610455803816  0.9997366552190572  1.0000
