data_image0
_chemical_formula_structural       HMn12Pt6Rh6
_chemical_formula_sum              "H1 Mn12 Pt6 Rh6"
_cell_length_a       7.325066277540125
_cell_length_b       5.980891704559326
_cell_length_c       102.20808410644531
_cell_angle_alpha    90.0
_cell_angle_beta     85.65224671338603
_cell_angle_gamma    114.09484312567697

_space_group_name_H-M_alt    "P 1"
_space_group_IT_number       1

loop_
  _space_group_symop_operation_xyz
  'x, y, z'

loop_
  _atom_site_type_symbol
  _atom_site_label
  _atom_site_symmetry_multiplicity
  _atom_site_fract_x
  _atom_site_fract_y
  _atom_site_fract_z
  _atom_site_occupancy
  H   H1        1.0  0.00240510283004219  0.0036981792240442356  0.99993649321269  1.0000
  Mn  Mn1       1.0  0.002620956092288449  0.003806105855167365  0.9998153624683385  1.0000
  Mn  Mn2       1.0  0.0033142181386351796  0.008930801876225181  0.9999819933555096  1.0000
  Mn  Mn3       1.0  0.0008281915088447987  0.008020832803745923  0.9995329523663146  1.0000
  Mn  Mn4       1.0  0.009253891513737506  0.001760512492637266  0.9999436304293738  1.0000
  Mn  Mn5       1.0  0.004994857849405504  0.00010416670277875238  0.9994016513815123  1.0000
  Mn  Mn6       1.0  0.006661524665149182  0.005937499824132523  0.9996642537212473  1.0000
  Mn  Mn7       1.0  0.009254741252697698  0.007712334335521868  0.9999437080395244  1.0000
  Mn  Mn8       1.0  0.004994857849405504  0.005104166416260684  0.9994016513815123  1.0000
  Mn  Mn9       1.0  0.006661524665149182  0.0009374999549342497  0.9996642537212473  1.0000
  Mn  Mn10      1.0  0.0026174995554523544  0.009029167853530229  0.9998153118510426  1.0000
  Mn  Mn11      1.0  0.003315608468104914  0.004608596826243906  0.9999818808311178  1.0000
  Mn  Mn12      1.0  0.0008281915088447987  0.0030208332459803313  0.9995329523663146  1.0000
  Pt  Pt1       1.0  0.00042180846320326185  0.0053194631496623675  9.69981196672353e-05  1.0000
  Pt  Pt2       1.0  0.00791152477695694  0.004062499955169536  0.9994673017654955  1.0000
  Pt  Pt3       1.0  0.009578191592700618  0.009895833144649207  0.9997299038136458  1.0000
  Pt  Pt4       1.0  0.006149009083620038  0.0031845460589040803  0.99988670077841  1.0000
  Pt  Pt5       1.0  0.002078191480892859  0.0011458332584761395  0.9993360007029068  1.0000
  Pt  Pt6       1.0  0.0037448580171171417  0.006979166356857469  0.9995986030441606  1.0000
  Rh  Rh1       1.0  0.0009741710718177902  0.0006004849104568941  0.00010454192294589663  1.0000
  Rh  Rh2       1.0  0.00791152477695694  0.009062499736777368  0.9994673017654955  1.0000
  Rh  Rh3       1.0  0.009578191592700618  0.004895833314380019  0.9997299038136458  1.0000
  Rh  Rh4       1.0  0.006218076648958703  0.008221301422869596  0.9998731237311672  1.0000
  Rh  Rh5       1.0  0.002078191480892859  0.006145833088745328  0.9993360007029068  1.0000
  Rh  Rh6       1.0  0.0037448580171171417  0.0019791666336432655  0.9995986030441606  1.0000
