data_image0
_chemical_formula_structural       Fe3Cu3Pt6Fe3Cu3Pt6H
_chemical_formula_sum              "Fe6 Cu6 Pt12 H1"
_cell_length_a       5.562742710113525
_cell_length_b       5.305253562368712
_cell_length_c       109.62625122070312
_cell_angle_alpha    94.58095140724102
_cell_angle_beta     90.0
_cell_angle_gamma    58.38106366511204

_space_group_name_H-M_alt    "P 1"
_space_group_IT_number       1

loop_
  _space_group_symop_operation_xyz
  'x, y, z'

loop_
  _atom_site_type_symbol
  _atom_site_label
  _atom_site_symmetry_multiplicity
  _atom_site_fract_x
  _atom_site_fract_y
  _atom_site_fract_z
  _atom_site_occupancy
  Fe  Fe1       1.0  0.008386437716192317  0.00404259871765432  0.9992111936721381  1.0000
  Fe  Fe2       1.0  0.0017197716719791647  0.007375931984727791  0.9990103787404904  1.0000
  Fe  Fe3       1.0  0.005053104913169876  0.0007092655023463678  0.9994120083321318  1.0000
  Cu  Cu1       1.0  0.0067197717523414715  0.007375931984727791  0.9990103787404904  1.0000
  Cu  Cu2       1.0  5.3104874662937684e-05  0.0007092655023463678  0.9994120083321318  1.0000
  Cu  Cu3       1.0  0.003386437970672955  0.00404259871765432  0.9992111936721381  1.0000
  Pt  Pt1       1.0  0.0033864380605490053  0.009042598618264527  0.9992111936717539  1.0000
  Pt  Pt2       1.0  0.00671977122409144  0.0023759322911796566  0.9990103787416749  1.0000
  Pt  Pt3       1.0  5.310474150430706e-05  0.005709265765315199  0.9994120083331482  1.0000
  Pt  Pt4       1.0  0.008386438140911312  0.009042598618264527  0.9992111936717539  1.0000
  Pt  Pt5       1.0  0.0017197714785720786  0.0023759322911796566  0.9990103787416749  1.0000
  Pt  Pt6       1.0  0.005053104487023669  0.005709265765315199  0.9994120083331482  1.0000
  Fe  Fe4       1.0  0.008260753703057275  0.004293468497622808  0.9998198035051726  1.0000
  Fe  Fe5       1.0  0.0017197716719791647  0.007375931984727791  0.9996128235346651  1.0000
  Fe  Fe6       1.0  0.004897600401561523  0.0010223190765829375  3.951375489544031e-06  1.0000
  Cu  Cu4       1.0  0.0067197717523414715  0.007375931984727791  0.9996128235346651  1.0000
  Cu  Cu5       1.0  0.009931146391057792  0.0009536072881489306  2.3319628227454292e-05  1.0000
  Cu  Cu6       1.0  0.0032626377771838378  0.00429000020792345  0.999810908089693  1.0000
  Pt  Pt7       1.0  0.0032523121819909217  0.009290734350639561  0.9998131515469625  1.0000
  Pt  Pt8       1.0  0.00671977122409144  0.0023759322911796566  0.9996128235358496  1.0000
  Pt  Pt9       1.0  0.009946895008414362  0.005879084824471793  1.304802861751327e-05  1.0000
  Pt  Pt10      1.0  0.008272260073110061  0.009290445291987604  0.9998131618475823  1.0000
  Pt  Pt11      1.0  0.0017197714785720786  0.0023759322911796566  0.9996128235358496  1.0000
  Pt  Pt12      1.0  0.004991481556574684  0.005879372226627178  1.3091548664598516e-05  1.0000
  H   H1        1.0  0.0024143734574860647  0.000987963234131452  0.00015046418433294664  1.0000
