data_image0
_chemical_formula_structural       COIr4Zn12
_chemical_formula_sum              "C1 O1 Ir4 Zn12"
_cell_length_a       4.894824342852053
_cell_length_b       5.313161373138428
_cell_length_c       105.72807312011719
_cell_angle_alpha    90.0
_cell_angle_beta     92.25391625470168
_cell_angle_gamma    90.0

_space_group_name_H-M_alt    "P 1"
_space_group_IT_number       1

loop_
  _space_group_symop_operation_xyz
  'x, y, z'

loop_
  _atom_site_type_symbol
  _atom_site_label
  _atom_site_symmetry_multiplicity
  _atom_site_fract_x
  _atom_site_fract_y
  _atom_site_fract_z
  _atom_site_occupancy
  C   C1        1.0  0.000408443753032002  0.008796749577989944  0.00014769522433470702  1.0000
  O   O1        1.0  0.000408443753032002  0.008796749577989944  0.0002611941651984254  1.0000
  Ir  Ir1       1.0  0.00314142733044211  0.005000027709204042  0.9993577119250916  1.0000
  Ir  Ir2       1.0  0.006266427635104695  2.790000062318156e-08  0.9995689144097614  1.0000
  Ir  Ir3       1.0  0.0027729979137802933  0.009999971982292674  0.9999723686643691  1.0000
  Ir  Ir4       1.0  0.009591556603042395  0.00500004173208058  0.9997831095004182  1.0000
  Zn  Zn1       1.0  0.0012664273380586745  0.00250002787747856  0.9995689147340838  1.0000
  Zn  Zn2       1.0  0.004555037353948413  0.007461775237161619  0.9997776008499191  1.0000
  Zn  Zn3       1.0  0.008141427437074014  0.007500027540929523  0.9993577118822995  1.0000
  Zn  Zn4       1.0  0.00776539459434981  0.0024064407770284547  0.9999951205814407  1.0000
  Zn  Zn5       1.0  0.0012664273380586745  0.007500027540929523  0.9995689147340838  1.0000
  Zn  Zn6       1.0  0.004555033164837862  0.0025384288237377817  0.9997776098623589  1.0000
  Zn  Zn7       1.0  0.008141427437074014  0.00250002787747856  0.9993577118822995  1.0000
  Zn  Zn8       1.0  0.007765346609992601  0.007593527173687214  0.9999951261316152  1.0000
  Zn  Zn9       1.0  0.006266427635104695  0.005000027709204042  0.9995689144097614  1.0000
  Zn  Zn10      1.0  0.009475342298163962  4.4899999584086406e-08  0.9997746129717638  1.0000
  Zn  Zn11      1.0  0.00314142733044211  2.790000062318156e-08  0.9993577119250916  1.0000
  Zn  Zn12      1.0  0.002794188719911645  0.004999991600296952  5.087514437361959e-06  1.0000
