data_image0
_chemical_formula_structural       HAl18Rh4
_chemical_formula_sum              "H1 Al18 Rh4"
_cell_length_a       6.3998519515555365
_cell_length_b       6.485424041748047
_cell_length_c       105.23072052001953
_cell_angle_alpha    90.0
_cell_angle_beta     94.95387325197906
_cell_angle_gamma    90.0

_space_group_name_H-M_alt    "P 1"
_space_group_IT_number       1

loop_
  _space_group_symop_operation_xyz
  'x, y, z'

loop_
  _atom_site_type_symbol
  _atom_site_label
  _atom_site_symmetry_multiplicity
  _atom_site_fract_x
  _atom_site_fract_y
  _atom_site_fract_z
  _atom_site_occupancy
  H   H1        1.0  0.0023883931885088894  0.00034230885352103016  0.00010368749740026804  1.0000
  Al  Al1       1.0  0.00022845960654980244  0.00508892332742932  0.9996271074812566  1.0000
  Al  Al2       1.0  0.009771540321876805  0.00012375234557317628  2.962719942506377e-05  1.0000
  Al  Al3       1.0  0.0023502536259583664  0.006145706159031888  0.9992421003391302  1.0000
  Al  Al4       1.0  0.008106665479050808  0.0011457061877523725  0.9995936204081974  1.0000
  Al  Al5       1.0  0.003920860904923648  0.005267504996904621  0.9998551293661857  1.0000
  Al  Al6       1.0  0.006205759696662867  0.0002517826430813136  0.9998179255469204  1.0000
  Al  Al7       1.0  0.0062274899632250415  0.004876247571855433  0.9994017463034403  1.0000
  Al  Al8       1.0  0.004229429579988583  0.009876247112327695  0.9994339747293981  1.0000
  Al  Al9       1.0  0.0041109069615902745  0.003125797280625134  0.9996247352282995  1.0000
  Al  Al10      1.0  0.006174514550799633  0.007826454708578536  3.242733253831672e-05  1.0000
  Al  Al11      1.0  0.00634601258162335  0.007052048799823835  0.999629479424417  1.0000
  Al  Al12      1.0  0.0038875839510917657  0.0020333506448920366  2.2670037580545153e-05  1.0000
  Al  Al13      1.0  0.0010354765321721623  0.0021752973270833882  0.9998125640650415  1.0000
  Al  Al14      1.0  0.009409971402800935  0.007002292859600674  0.9998610686797876  1.0000
  Al  Al15      1.0  0.009264881909252539  0.007956324714614892  0.9994369129905918  1.0000
  Al  Al16      1.0  0.0011920371227225617  0.002956324886937795  0.9993988080395616  1.0000
  Al  Al17      1.0  0.0023502536259583664  0.009032140036299015  0.9996605942422178  1.0000
  Al  Al18      1.0  0.007655482581309993  0.0037204704029212728  8.790938658396577e-06  1.0000
  Rh  Rh1       1.0  0.0028708304344063984  0.006317593083776685  0.9994862402438078  1.0000
  Rh  Rh2       1.0  0.007586089108807227  0.0013175931124971693  0.9993494805058212  1.0000
  Rh  Rh3       1.0  0.00745793008240693  0.0038823419206200755  0.9997651506512901  1.0000
  Rh  Rh4       1.0  0.0028023051909881495  0.00886982335110419  0.9999056713645877  1.0000
