data_image0
_chemical_formula_structural       COIn5Cu5Pt10In5Cu5Pt10
_chemical_formula_sum              "C1 O1 In10 Cu10 Pt20"
_cell_length_a       5.8046464920043945
_cell_length_b       8.737091985779276
_cell_length_c       104.84478759765625
_cell_angle_alpha    77.77042890261049
_cell_angle_beta     90.0
_cell_angle_gamma    70.59860335587994

_space_group_name_H-M_alt    "P 1"
_space_group_IT_number       1

loop_
  _space_group_symop_operation_xyz
  'x, y, z'

loop_
  _atom_site_type_symbol
  _atom_site_label
  _atom_site_symmetry_multiplicity
  _atom_site_fract_x
  _atom_site_fract_y
  _atom_site_fract_z
  _atom_site_occupancy
  C   C1        1.0  0.0001994204691820421  0.00984097821988534  0.00014425372710643182  1.0000
  O   O1        1.0  0.0001994204691820421  0.00984097821988534  0.0002587088621079483  1.0000
  In  In1       1.0  0.009042775286084112  0.0021590214089976575  0.999064699879068  1.0000
  In  In2       1.0  0.007042775193304862  0.006159021594556158  0.9991976381060603  1.0000
  In  In3       1.0  0.0010427754687121836  0.008159021223439155  0.9989317611290522  1.0000
  In  In4       1.0  0.0050427753280936315  0.0001590215046762598  0.9993305768609383  1.0000
  In  In5       1.0  0.0030427753295433064  0.004159021501776908  0.998798822609619  1.0000
  Cu  Cu1       1.0  0.008042775239694487  0.004159021501776908  0.998798822609619  1.0000
  Cu  Cu2       1.0  0.006042775378863364  0.008159021223439155  0.9989317611290522  1.0000
  Cu  Cu3       1.0  4.277539788691111e-05  0.0001590215046762598  0.9993305768609383  1.0000
  Cu  Cu4       1.0  0.0040427753759329325  0.0021590214089976575  0.999064699879068  1.0000
  Cu  Cu5       1.0  0.0020427752831536816  0.006159021594556158  0.9991976381060603  1.0000
  Pt  Pt1       1.0  0.00504277553784247  0.005159021316218406  0.9989982305040601  1.0000
  Pt  Pt2       1.0  0.0030427756770113456  0.009159021037880655  0.9991311690234932  1.0000
  Pt  Pt3       1.0  0.007042775456660625  0.0011590214785820955  0.9988652919866742  1.0000
  Pt  Pt4       1.0  0.0010427753976625296  0.0031590214553872827  0.9992641077694145  1.0000
  Pt  Pt5       1.0  0.009042775080715378  0.007159021408997658  0.998732353518863  1.0000
  Pt  Pt6       1.0  4.277546724696777e-05  0.005159021316218406  0.9989982305040601  1.0000
  Pt  Pt7       1.0  0.00804277526627388  0.009159021037880655  0.9991311690234932  1.0000
  Pt  Pt8       1.0  0.0020427753860651236  0.0011590214785820955  0.9988652919866742  1.0000
  Pt  Pt9       1.0  0.0060427754682580315  0.0031590214553872827  0.9992641077694145  1.0000
  Pt  Pt10      1.0  0.004042775491452845  0.007159021408997658  0.998732353518863  1.0000
  In  In6       1.0  0.00906687238250058  0.0021129746029790305  0.9997253277243354  1.0000
  In  In7       1.0  0.007082135634390641  0.006079105723069523  0.999886100834651  1.0000
  In  In8       1.0  0.0010427754687121836  0.008159021223439155  0.9995964538949423  1.0000
  In  In9       1.0  0.0049967081934916445  0.00024955710664937756  0.9999955946959976  1.0000
  In  In10      1.0  0.0030427753295433064  0.004159021501776908  0.999463515659761  1.0000
  Cu  Cu6       1.0  0.008042775239694487  0.004159021501776908  0.999463515659761  1.0000
  Cu  Cu7       1.0  0.006042775378863364  0.008159021223439155  0.9995964538949423  1.0000
  Cu  Cu8       1.0  0.009957224334944103  0.000325370308663578  0.9999747220502767  1.0000
  Cu  Cu9       1.0  0.004076551064960353  0.0020911510676293937  0.9997260517922237  1.0000
  Cu  Cu10      1.0  0.00206887539908747  0.006110906275143177  0.9998594951864017  1.0000
  Pt  Pt11      1.0  0.00504277553784247  0.005159021316218406  0.999662923554202  1.0000
  Pt  Pt12      1.0  0.0031366301620127813  0.00902080593252796  0.9998042766033631  1.0000
  Pt  Pt13      1.0  0.007042775456660625  0.0011590214785820955  0.9995299847525643  1.0000
  Pt  Pt14      1.0  0.0010862465012669881  0.003175103114859228  0.9999170556203428  1.0000
  Pt  Pt15      1.0  0.009042775080715378  0.007159021408997658  0.9993970460005014  1.0000
  Pt  Pt16      1.0  4.277546724696777e-05  0.005159021316218406  0.999662923554202  1.0000
  Pt  Pt17      1.0  0.008088334901767597  0.009020559139721098  0.9998042548087023  1.0000
  Pt  Pt18      1.0  0.0020427753860651236  0.0011590214785820955  0.9995299847525643  1.0000
  Pt  Pt19      1.0  0.005982432947656757  0.0031748208339889734  0.9999170071639593  1.0000
  Pt  Pt20      1.0  0.004042775491452845  0.007159021408997658  0.9993970460005014  1.0000
