data_image0
_chemical_formula_structural       HGa27Ni39
_chemical_formula_sum              "H1 Ga27 Ni39"
_cell_length_a       11.752273388136636
_cell_length_b       6.43061501638757
_cell_length_c       103.63633728027344
_cell_angle_alpha    86.34556086538117
_cell_angle_beta     87.72596362460627
_cell_angle_gamma    94.9229726509601

_space_group_name_H-M_alt    "P 1"
_space_group_IT_number       1

loop_
  _space_group_symop_operation_xyz
  'x, y, z'

loop_
  _atom_site_type_symbol
  _atom_site_label
  _atom_site_symmetry_multiplicity
  _atom_site_fract_x
  _atom_site_fract_y
  _atom_site_fract_z
  _atom_site_occupancy
  H   H1        1.0  0.006131323768182492  0.008479309165781131  5.8334161367379014e-05  1.0000
  Ga  Ga1       1.0  0.006234267640625658  0.008301521182091438  0.999309516122928  1.0000
  Ga  Ga2       1.0  0.0017898232485546097  0.004968188199090224  0.9996701400409085  1.0000
  Ga  Ga3       1.0  0.0006787121505368476  0.0016348547937063262  0.998948892843204  1.0000
  Ga  Ga4       1.0  0.0007570629449847521  0.008048959620387926  0.9992525681105842  1.0000
  Ga  Ga5       1.0  0.006312618594316996  0.004715626411904467  0.9996131918797357  1.0000
  Ga  Ga6       1.0  0.0019991662574407702  0.0015100622090260456  0.9999625113122921  1.0000
  Ga  Ga7       1.0  0.008182703399266874  0.001910498568439624  0.9994614524294777  1.0000
  Ga  Ga8       1.0  0.0037335985888983366  0.008473206677516372  0.9998305256179285  1.0000
  Ga  Ga9       1.0  0.00262714798879978  0.005243832069609112  0.9991008289456602  1.0000
  Ga  Ga10      1.0  0.008104352445575537  0.00549639359258913  0.9991577769592319  1.0000
  Ga  Ga11      1.0  0.003659908371991354  0.0021630603709763417  0.9995184005891568  1.0000
  Ga  Ga12      1.0  0.009429447622699892  0.00893823104773928  0.9998801598985889  1.0000
  Ga  Ga13      1.0  0.007535675675642621  0.009959995287428967  0.9990447271510337  1.0000
  Ga  Ga14      1.0  0.003091231602058438  0.006626661485330383  0.9994053510708206  1.0000
  Ga  Ga15      1.0  0.008625189303496844  0.0031961297093531685  0.9997697151413181  1.0000
  Ga  Ga16      1.0  0.0013257396352959515  0.003585358493126055  0.9993656182044622  1.0000
  Ga  Ga17      1.0  0.006879316923843706  0.0003045573600499048  0.999723247967342  1.0000
  Ga  Ga18      1.0  0.005770183868123568  0.006918691740554504  0.9990049942861524  1.0000
  Ga  Ga19      1.0  0.005541465073823319  0.0034315390419161567  0.9992508262774378  1.0000
  Ga  Ga20      1.0  0.0010970207613739864  9.820579972005721e-05  0.9996114501960851  1.0000
  Ga  Ga21      1.0  0.006837130790661936  0.007206526364364486  0.9999619393722001  1.0000
  Ga  Ga22      1.0  0.008875505966069215  0.00678048096257744  0.9995201422739635  1.0000
  Ga  Ga23      1.0  0.004506626723080186  0.003536632107486118  0.9998849206423865  1.0000
  Ga  Ga24      1.0  0.003319950396358687  0.00011381416220051388  0.9991595187086608  1.0000
  Ga  Ga25      1.0  0.009430707556738359  0.0017726765658887219  0.999205172706794  1.0000
  Ga  Ga26      1.0  0.004986263483154175  0.008439343710707592  0.9995657964186638  1.0000
  Ga  Ga27      1.0  0.00063843662005901  0.005242794218183603  0.9999437631751761  1.0000
  Ni  Ni1       1.0  0.007097639669892288  0.008393394757632773  0.9995250485945409  1.0000
  Ni  Ni2       1.0  0.0026549603320278055  0.005008007542981172  0.9998798119961878  1.0000
  Ni  Ni3       1.0  0.001542083940938328  0.0017267278951598219  0.9991644253177668  1.0000
  Ni  Ni4       1.0  0.00943972519383773  0.008638034708830294  0.9990738707115532  1.0000
  Ni  Ni5       1.0  0.004995280801766681  0.005304701435586183  0.9994344943431153  1.0000
  Ni  Ni6       1.0  0.0005346855426561637  0.0020609562687980035  0.9997978997718258  1.0000
  Ni  Ni7       1.0  0.007319331370000245  0.0018186254645429984  0.9992459199559993  1.0000
  Ni  Ni8       1.0  0.0028748872964160614  0.008485292083296616  0.9996065436699498  1.0000
  Ni  Ni9       1.0  0.008584731917019016  0.00553952855234198  0.9999394637238027  1.0000
  Ni  Ni10      1.0  0.009421689919638987  0.004907318517276092  0.9993364747850559  1.0000
  Ni  Ni11      1.0  0.0049443999771667845  0.001533431620936972  0.9996981792867642  1.0000
  Ni  Ni12      1.0  0.003866134668415324  0.008240651790298707  0.9989758510138579  1.0000
  Ni  Ni13      1.0  0.008847679131688825  0.00323604845253416  0.9989918199123452  1.0000
  Ni  Ni14      1.0  0.0044032347396177765  0.00990271494709573  0.9993524436282198  1.0000
  Ni  Ni15      1.0  0.009962920128508482  0.006458577639411005  0.9997167198639078  1.0000
  Ni  Ni16      1.0  1.3736549988364528e-05  0.00030930489471002286  0.9994185250722357  1.0000
  Ni  Ni17      1.0  0.0055557594013042125  0.0069891353594757994  0.9997850681054794  1.0000
  Ni  Ni18      1.0  0.004458181049051094  0.0036426383304204806  0.999057901727116  1.0000
  Ni  Ni19      1.0  0.008369790864504416  0.008466272106491812  0.9993012892792139  1.0000
  Ni  Ni20      1.0  0.003925346153946502  0.0051329387816163785  0.9996619126248469  1.0000
  Ni  Ni21      1.0  0.002814235294793888  0.0017996054149559736  0.9989406654259145  1.0000
  Ni  Ni22      1.0  0.006047180175388117  0.001745747752880335  0.9994696798478939  1.0000
  Ni  Ni23      1.0  0.0016476411573533428  0.008481023397585693  0.9998370584289961  1.0000
  Ni  Ni24      1.0  0.0004916249241644555  0.005079081171024398  0.9991090560761219  1.0000
  Ni  Ni25      1.0  0.0010533712606686475  0.006838681646545446  0.9994792109144445  1.0000
  Ni  Ni26      1.0  0.0065995886362500466  0.0035915590335122943  0.9998380789296893  1.0000
  Ni  Ni27      1.0  0.005497815811983129  0.0001720148875566399  0.9991185871988991  1.0000
  Ni  Ni28      1.0  0.007208485201459401  0.005106010095736924  0.9993854845643303  1.0000
  Ni  Ni29      1.0  0.0027614467338718455  0.0017907157336495899  0.9997383299564315  1.0000
  Ni  Ni30      1.0  0.001652930109479172  0.008439343394575199  0.9990248607923136  1.0000
  Ni  Ni31      1.0  0.007767135367904204  0.006749733312417031  0.9997367848673637  1.0000
  Ni  Ni32      1.0  0.006652930090369959  0.0034393433914773207  0.9990248608197306  1.0000
  Ni  Ni33      1.0  0.0022084855390554787  0.00010600998357646072  0.9993854844525418  1.0000
  Ni  Ni34      1.0  0.00998626330480153  0.0034393432464297044  0.999565796161055  1.0000
  Ni  Ni35      1.0  0.00555999718753167  0.00011759202322390995  0.9999159377902591  1.0000
  Ni  Ni36      1.0  0.004430707735091003  0.006772676612942444  0.9992051726784865  1.0000
  Ni  Ni37      1.0  0.008919155227909405  4.0004913766928976e-05  0.9996523815574778  1.0000
  Ni  Ni38      1.0  0.007808044368756791  0.006706671605155103  0.99893113444171  1.0000
  Ni  Ni39      1.0  0.0033635999766857424  0.0033733383319109918  0.9992917577857058  1.0000
