data_image0
_chemical_formula_structural       HVRhVRhVRhVRhVRhVRhVRhVRhVRhVRhVRhVRh
_chemical_formula_sum              "H1 V12 Rh12"
_cell_length_a       7.332531929016113
_cell_length_b       5.488143444061279
_cell_length_c       100.1847915649414
_cell_angle_alpha    90.0
_cell_angle_beta     90.0
_cell_angle_gamma    90.0

_space_group_name_H-M_alt    "P 1"
_space_group_IT_number       1

loop_
  _space_group_symop_operation_xyz
  'x, y, z'

loop_
  _atom_site_type_symbol
  _atom_site_label
  _atom_site_symmetry_multiplicity
  _atom_site_fract_x
  _atom_site_fract_y
  _atom_site_fract_z
  _atom_site_occupancy
  H   H1        1.0  0.001250000030482979  0.003749999945696896  0.00012297793209127938  1.0000
  V   V1        1.0  0.001250000030482979  0.003749999945696896  0.0  1.0000
  Rh  Rh1       1.0  0.0037500000914489373  0.001250000010181832  0.9998630491418256  1.0000
  V   V2        1.0  0.001250000030482979  0.003749999945696896  0.9997260988785981  1.0000
  Rh  Rh2       1.0  0.0037500000914489373  0.001250000010181832  0.9995891483178972  1.0000
  V   V3        1.0  0.001250000030482979  0.003749999945696896  0.9994521977571963  1.0000
  Rh  Rh3       1.0  0.0037500000914489373  0.001250000010181832  0.9993152474939688  1.0000
  V   V4        1.0  0.001250000030482979  0.008750000325818625  0.0  1.0000
  Rh  Rh4       1.0  0.0037500000914489373  0.00625000013575776  0.9998630491418256  1.0000
  V   V5        1.0  0.001250000030482979  0.008750000325818625  0.9997260988785981  1.0000
  Rh  Rh5       1.0  0.0037500000914489373  0.00625000013575776  0.9995891483178972  1.0000
  V   V6        1.0  0.001250000030482979  0.008750000325818625  0.9994521977571963  1.0000
  Rh  Rh6       1.0  0.0037500000914489373  0.00625000013575776  0.9993152474939688  1.0000
  V   V7        1.0  0.006250000406439722  0.003749999945696896  0.0  1.0000
  Rh  Rh7       1.0  0.008749999959356028  0.001250000010181832  0.9998630491418256  1.0000
  V   V8        1.0  0.006250000406439722  0.003749999945696896  0.9997260988785981  1.0000
  Rh  Rh8       1.0  0.008749999959356028  0.001250000010181832  0.9995891483178972  1.0000
  V   V9        1.0  0.006250000406439722  0.003749999945696896  0.9994521977571963  1.0000
  Rh  Rh9       1.0  0.008749999959356028  0.001250000010181832  0.9993152474939688  1.0000
  V   V10       1.0  0.006250000406439722  0.008750000325818625  0.0  1.0000
  Rh  Rh10      1.0  0.008749999959356028  0.00625000013575776  0.9998630491418256  1.0000
  V   V11       1.0  0.006250000406439722  0.008750000325818625  0.9997260988785981  1.0000
  Rh  Rh11      1.0  0.008749999959356028  0.00625000013575776  0.9995891483178972  1.0000
  V   V12       1.0  0.006250000406439722  0.008750000325818625  0.9994521977571963  1.0000
  Rh  Rh12      1.0  0.008749999959356028  0.00625000013575776  0.9993152474939688  1.0000
