data_image0
_chemical_formula_structural       CONb4Ni12
_chemical_formula_sum              "C1 O1 Nb4 Ni12"
_cell_length_a       4.588041305541992
_cell_length_b       4.588041621173326
_cell_length_c       101.20430755615234
_cell_angle_alpha    90.0
_cell_angle_beta     90.0
_cell_angle_gamma    110.94956859904191

_space_group_name_H-M_alt    "P 1"
_space_group_IT_number       1

loop_
  _space_group_symop_operation_xyz
  'x, y, z'

loop_
  _atom_site_type_symbol
  _atom_site_label
  _atom_site_symmetry_multiplicity
  _atom_site_fract_x
  _atom_site_fract_y
  _atom_site_fract_z
  _atom_site_occupancy
  C   C1        1.0  0.007500001039304415  0.007500000000000001  0.00016810739174692957  1.0000
  O   O1        1.0  0.007500001039304415  0.007500000000000001  0.0002866790711924138  1.0000
  Nb  Nb1       1.0  0.005000000374658882  0.005000000434714869  0.9992346273654545  1.0000
  Nb  Nb2       1.0  2.0000000732574653e-10  6.499999911840494e-10  0.9994915689897272  1.0000
  Nb  Nb3       1.0  0.004999998798304271  0.005  0.9997536406946343  1.0000
  Nb  Nb4       1.0  2.6000001800132184e-09  9.499999671835911e-10  0.9999939261211661  1.0000
  Ni  Ni1       1.0  0.005000000394796279  6.499999911840494e-10  0.9991061565533181  1.0000
  Ni  Ni2       1.0  2.1226756793807514e-10  0.005000000434714869  0.9993630981775908  1.0000
  Ni  Ni3       1.0  0.005000000374658882  0.005000000434714869  0.9994915689897272  1.0000
  Ni  Ni4       1.0  2.0000000732574653e-10  6.499999911840494e-10  0.9992346273654545  1.0000
  Ni  Ni5       1.0  2.1226756793807514e-10  0.005000000434714869  0.9991061565533181  1.0000
  Ni  Ni6       1.0  0.005000000394796279  6.499999911840494e-10  0.9993630981775908  1.0000
  Ni  Ni7       1.0  0.005000000394796279  6.499999911840494e-10  0.9996200395073868  1.0000
  Ni  Ni8       1.0  0.009999997993308404  0.004999999565285132  0.999882172168995  1.0000
  Ni  Ni9       1.0  0.0049999989409798785  0.0049999986958553936  0.0  1.0000
  Ni  Ni10      1.0  0.010000000127595336  0.009999999130570264  0.9997507230183283  1.0000
  Ni  Ni11      1.0  2.1226756793807514e-10  0.005000000434714869  0.9996200395073868  1.0000
  Ni  Ni12      1.0  0.005000001284633453  0.009999999130570264  0.999882172168995  1.0000
