data_image0
_chemical_formula_structural       COVPtVPtVPtVPtVPtVPtVPtVPtVPtVPtVPtVPt
_chemical_formula_sum              "C1 O1 V12 Pt12"
_cell_length_a       5.420310974121094
_cell_length_b       7.852696895599365
_cell_length_c       99.81170654296875
_cell_angle_alpha    90.0
_cell_angle_beta     90.0
_cell_angle_gamma    90.0

_space_group_name_H-M_alt    "P 1"
_space_group_IT_number       1

loop_
  _space_group_symop_operation_xyz
  'x, y, z'

loop_
  _atom_site_type_symbol
  _atom_site_label
  _atom_site_symmetry_multiplicity
  _atom_site_fract_x
  _atom_site_fract_y
  _atom_site_fract_z
  _atom_site_occupancy
  C   C1        1.0  0.0025000049003313565  0.000833332771173726  0.00013132504288164665  1.0000
  O   O1        1.0  0.0025000049003313565  0.000833332771173726  0.00025155166493152697  1.0000
  V   V1        1.0  0.0024999999175259803  0.00250000181219384  0.9993257480926839  1.0000
  Pt  Pt1       1.0  4.9999999010106636e-11  1.8500000225130114e-09  0.999461511608142  1.0000
  V   V2        1.0  0.0024999999175259803  0.00250000181219384  0.9995972751236001  1.0000
  Pt  Pt2       1.0  0.009999999670103921  9.450000435972232e-09  0.9997330455065232  1.0000
  V   V3        1.0  0.002500002838480856  0.0025000020493919865  0.9998733794693224  1.0000
  Pt  Pt3       1.0  5.9499997797894674e-09  0.009999998709642084  0.0  1.0000
  V   V4        1.0  0.0024999999175259803  0.007500001878609322  0.9993257480926839  1.0000
  Pt  Pt4       1.0  4.9999999010106636e-11  0.005000002201198801  0.999461511608142  1.0000
  V   V5        1.0  0.0024999999175259803  0.007500001878609322  0.9995972751236001  1.0000
  Pt  Pt5       1.0  0.009999999670103921  0.005000009791539491  0.9997330455065232  1.0000
  V   V6        1.0  0.002500002838480856  0.007500002353005615  0.9998733794693224  1.0000
  Pt  Pt6       1.0  5.9499997797894674e-09  0.004999998406028456  0.0  1.0000
  V   V7        1.0  0.00749999975257794  0.00250000181219384  0.9993257480926839  1.0000
  Pt  Pt7       1.0  0.0049999998350519605  1.8500000225130114e-09  0.999461511608142  1.0000
  V   V8        1.0  0.00749999975257794  0.00250000181219384  0.9995972751236001  1.0000
  Pt  Pt8       1.0  0.0049999998350519605  9.450000435972232e-09  0.9997330455065232  1.0000
  V   V9        1.0  0.007500002501711941  0.0025000020493919865  0.9998733794693224  1.0000
  Pt  Pt9       1.0  0.005000005676961712  0.009999998709642084  0.0  1.0000
  V   V10       1.0  0.00749999975257794  0.007500001878609322  0.9993257480926839  1.0000
  Pt  Pt10      1.0  0.0049999998350519605  0.005000002201198801  0.999461511608142  1.0000
  V   V11       1.0  0.00749999975257794  0.007500001878609322  0.9995972751236001  1.0000
  Pt  Pt11      1.0  0.0049999998350519605  0.005000009791539491  0.9997330455065232  1.0000
  V   V12       1.0  0.007500002501711941  0.007500002353005615  0.9998733794693224  1.0000
  Pt  Pt12      1.0  0.005000005676961712  0.004999998406028456  0.0  1.0000
