data_image0
_chemical_formula_structural       COAu3In6
_chemical_formula_sum              "C1 O1 Au3 In6"
_cell_length_a       4.778785228729248
_cell_length_b       4.778785159915722
_cell_length_c       105.11675262451172
_cell_angle_alpha    90.0
_cell_angle_beta     90.0
_cell_angle_gamma    120.00000047634138

_space_group_name_H-M_alt    "P 1"
_space_group_IT_number       1

loop_
  _space_group_symop_operation_xyz
  'x, y, z'

loop_
  _atom_site_type_symbol
  _atom_site_label
  _atom_site_symmetry_multiplicity
  _atom_site_fract_x
  _atom_site_fract_y
  _atom_site_fract_z
  _atom_site_occupancy
  C   C1        1.0  0.008333336278246098  0.008333335013602111  0.00010991590277824652  1.0000
  O   O1        1.0  0.008333336278246098  0.008333335013602111  0.00022407491187131126  1.0000
  Au  Au1       1.0  0.004999996434467234  0.006666666660665707  0.9992823908109879  1.0000
  Au  Au2       1.0  0.0016666730599027492  0.009999999315890568  0.0  1.0000
  Au  Au3       1.0  0.008333329995369596  0.0033333333303328535  0.9996535837959777  1.0000
  In  In1       1.0  0.004999996434467234  0.006666666660665707  0.9995607854788511  1.0000
  In  In2       1.0  0.0016666633240212667  4.9999998763944394e-11  0.9991895924938613  1.0000
  In  In3       1.0  0.008333336464864406  0.0033333353556568275  0.9999451418463807  1.0000
  In  In4       1.0  0.0016666641554041902  0.010000000216034557  0.9997327030142483  1.0000
  In  In5       1.0  0.008333329995369596  0.0033333333303328535  0.9993751888445981  1.0000
  In  In6       1.0  0.004999996434467234  0.006666666660665707  0.9990039958596083  1.0000
