data_image0
_chemical_formula_structural       COAu2Ca2In4
_chemical_formula_sum              "C1 O1 Au2 Ca2 In4"
_cell_length_a       6.016965964848164
_cell_length_b       4.671236991882324
_cell_length_c       101.32674407958984
_cell_angle_alpha    90.0
_cell_angle_beta     90.0
_cell_angle_gamma    112.84081172107064

_space_group_name_H-M_alt    "P 1"
_space_group_IT_number       1

loop_
  _space_group_symop_operation_xyz
  'x, y, z'

loop_
  _atom_site_type_symbol
  _atom_site_label
  _atom_site_symmetry_multiplicity
  _atom_site_fract_x
  _atom_site_fract_y
  _atom_site_fract_z
  _atom_site_occupancy
  C   C1        1.0  0.006487506499893327  0.0010080955454872015  0.00016700248695533405  1.0000
  O   O1        1.0  0.006487506499893327  0.0010080955454872015  0.00028543089224016775  1.0000
  Au  Au1       1.0  0.0057426509176985155  0.0031354254513438684  0.9996140914948003  1.0000
  Au  Au2       1.0  0.004447358124967699  0.00749077292471379  0.9999921304987637  1.0000
  Ca  Ca1       1.0  0.0014723448833295482  0.006000272505933976  0.9996140914948003  1.0000
  Ca  Ca2       1.0  0.008527654874818954  0.00452541803567073  0.0  1.0000
  In  In1       1.0  0.007279861044169005  0.008904030586353705  0.9994599476834523  1.0000
  In  In2       1.0  0.007462147204235397  0.008991904333744373  0.9997650355638867  1.0000
  In  In3       1.0  0.0026772218300406127  0.0016027108576714508  0.9993817782653002  1.0000
  In  In4       1.0  0.002788738547310495  0.0016547760646697881  0.9998649619941091  1.0000
