data_image0
_chemical_formula_structural       HIn3Ni3In3Ni3
_chemical_formula_sum              "H1 In6 Ni6"
_cell_length_a       5.33396577835083
_cell_length_b       5.3339658558980325
_cell_length_c       101.00796508789062
_cell_angle_alpha    90.0
_cell_angle_beta     90.0
_cell_angle_gamma    119.9999995190744

_space_group_name_H-M_alt    "P 1"
_space_group_IT_number       1

loop_
  _space_group_symop_operation_xyz
  'x, y, z'

loop_
  _atom_site_type_symbol
  _atom_site_label
  _atom_site_symmetry_multiplicity
  _atom_site_fract_x
  _atom_site_fract_y
  _atom_site_fract_z
  _atom_site_occupancy
  H   H1        1.0  0.0033333308258040846  0.006666664451608102  0.00012191670249429805  1.0000
  In  In1       1.0  0.006666672006638275  0.0033333386774309394  0.9993495161730788  1.0000
  In  In2       1.0  0.003333338456457553  0.006666672112915032  0.9993495161730788  1.0000
  In  In3       1.0  5.100000094706439e-09  5.299999974183923e-09  0.999568791155355  1.0000
  Ni  Ni1       1.0  4.929466253978408e-09  0.005000005193559645  0.999568791155355  1.0000
  Ni  Ni2       1.0  0.00500000515295717  0.005000005193559645  0.999568791155355  1.0000
  Ni  Ni3       1.0  0.005000005317922792  5.299999974183923e-09  0.999568791155355  1.0000
  In  In4       1.0  0.006664763885280058  0.0033317398836425864  0.9997889436140432  1.0000
  In  In5       1.0  0.0033352371147068794  0.006668261229263051  0.9997889436140432  1.0000
  In  In6       1.0  1.4200000826956858e-08  1.43000005180491e-08  2.9834788103856727e-05  1.0000
  Ni  Ni4       1.0  0.009999995112521405  0.004999997935479395  0.9999999150258215  1.0000
  Ni  Ni5       1.0  0.005000000289165197  0.005000000354839479  0.9999999073545416  1.0000
  Ni  Ni6       1.0  0.004999997382252713  0.00999999506450543  0.0  1.0000
