data_image0
_chemical_formula_structural       COAg6Sn2Ag6Sn2
_chemical_formula_sum              "C1 O1 Ag12 Sn4"
_cell_length_a       4.954258918762207
_cell_length_b       5.2833123207092285
_cell_length_c       107.08802032470703
_cell_angle_alpha    90.0
_cell_angle_beta     90.0
_cell_angle_gamma    90.0

_space_group_name_H-M_alt    "P 1"
_space_group_IT_number       1

loop_
  _space_group_symop_operation_xyz
  'x, y, z'

loop_
  _atom_site_type_symbol
  _atom_site_label
  _atom_site_symmetry_multiplicity
  _atom_site_fract_x
  _atom_site_fract_y
  _atom_site_fract_z
  _atom_site_occupancy
  C   C1        1.0  0.005000002060307219  0.008732851788313425  8.243504261575446e-05  1.0000
  O   O1        1.0  0.005000002060307219  0.008732851788313425  0.00019449206521888587  1.0000
  Ag  Ag1       1.0  0.005000000180464866  0.006369586383787087  0.9994188370127016  1.0000
  Ag  Ag2       1.0  4.4999998300486206e-10  0.002881153443475935  0.9991302269781489  1.0000
  Ag  Ag3       1.0  4.4999998300486206e-10  0.00797888293802774  0.998986207772348  1.0000
  Ag  Ag4       1.0  0.005000000180464866  0.001271856536682747  0.9989856358710997  1.0000
  Ag  Ag5       1.0  4.4999998300486206e-10  0.00797888293802774  0.9992742459056524  1.0000
  Ag  Ag6       1.0  0.005000000180464866  0.001271856536682747  0.9992748180851981  1.0000
  Sn  Sn1       1.0  4.4999998300486206e-10  0.0029315702186723737  0.9994188370127016  1.0000
  Sn  Sn2       1.0  0.005000000180464866  0.006319169256038114  0.9991302269781489  1.0000
  Ag  Ag7       1.0  0.005000002812244161  0.006198555393144475  0.9999829353573011  1.0000
  Ag  Ag8       1.0  4.4999998300486206e-10  0.002881153443475935  0.9997074470472543  1.0000
  Ag  Ag9       1.0  4.4999998300486206e-10  0.00797888293802774  0.9995634281197509  1.0000
  Ag  Ag10      1.0  0.005000000180464866  0.001271856536682747  0.9995628559402051  1.0000
  Ag  Ag11      1.0  0.00999999885705585  0.008058128991628  0.9998655205522975  1.0000
  Ag  Ag12      1.0  0.005000001684338749  0.0012671481975844749  0.9998584529103982  1.0000
  Sn  Sn3       1.0  4.149999898045758e-09  0.0030148491207148  0.0  1.0000
  Sn  Sn4       1.0  0.005000000180464866  0.006319169256038114  0.9997074470472543  1.0000
