data_image0
_chemical_formula_structural       Al4Os2Al4Os2Al4Os2Al4Os2H
_chemical_formula_sum              "Al16 Os8 H1"
_cell_length_a       6.397309303283691
_cell_length_b       6.397309303283691
_cell_length_c       36.50155258178711
_cell_angle_alpha    90.0
_cell_angle_beta     90.0
_cell_angle_gamma    90.0

_space_group_name_H-M_alt    "P 1"
_space_group_IT_number       1

loop_
  _space_group_symop_operation_xyz
  'x, y, z'

loop_
  _atom_site_type_symbol
  _atom_site_label
  _atom_site_symmetry_multiplicity
  _atom_site_fract_x
  _atom_site_fract_y
  _atom_site_fract_z
  _atom_site_occupancy
  Al  Al1       1.0  0.009999999767071428  0.009999999767071428  0.9995418549135339  1.0000
  Al  Al2       1.0  0.002500000232928572  0.0024999996506071425  0.0  1.0000
  Al  Al3       1.0  0.002499999941767857  0.002499999941767857  0.9983951793180249  1.0000
  Al  Al4       1.0  5.000000035673585e-11  5.000000035673585e-11  0.9988000311374483  1.0000
  Os  Os1       1.0  5.000000035673585e-11  5.000000035673585e-11  0.9980240259597919  1.0000
  Os  Os2       1.0  0.0024999996506071425  0.002500000232928572  0.9991515337618223  1.0000
  Al  Al5       1.0  0.009999999767071428  0.004999999883535714  0.9995418549135339  1.0000
  Al  Al6       1.0  0.002500000232928572  0.007499999534142857  0.0  1.0000
  Al  Al7       1.0  0.002499999941767857  0.007500000116464286  0.9983951793180249  1.0000
  Al  Al8       1.0  5.000000035673585e-11  0.004999999883535714  0.9988000311374483  1.0000
  Os  Os3       1.0  5.000000035673585e-11  0.004999999883535714  0.9980240259597919  1.0000
  Os  Os4       1.0  0.0024999996506071425  0.007500000116464286  0.9991515337618223  1.0000
  Al  Al9       1.0  0.004999999883535714  0.009999999767071428  0.9995418549135339  1.0000
  Al  Al10      1.0  0.007500000116464286  0.0024999996506071425  0.0  1.0000
  Al  Al11      1.0  0.007500000116464286  0.002499999941767857  0.9983951793180249  1.0000
  Al  Al12      1.0  0.004999999883535714  5.000000035673585e-11  0.9988000311374483  1.0000
  Os  Os5       1.0  0.004999999883535714  5.000000035673585e-11  0.9980240259597919  1.0000
  Os  Os6       1.0  0.007499999534142857  0.002500000232928572  0.9991515337618223  1.0000
  Al  Al13      1.0  0.004999999883535714  0.004999999883535714  0.9995418549135339  1.0000
  Al  Al14      1.0  0.007500000116464286  0.007499999534142857  0.0  1.0000
  Al  Al15      1.0  0.007500000116464286  0.007500000116464286  0.9983951793180249  1.0000
  Al  Al16      1.0  0.004999999883535714  0.004999999883535714  0.9988000311374483  1.0000
  Os  Os7       1.0  0.004999999883535714  0.004999999883535714  0.9980240259597919  1.0000
  Os  Os8       1.0  0.007499999534142857  0.007500000116464286  0.9991515337618223  1.0000
  H   H1        1.0  0.001250000116464286  0.0037499997670714285  0.00018186889720120774  1.0000
