data_image0
_chemical_formula_structural       HAl3Pt9Al3Pt9
_chemical_formula_sum              "H1 Al6 Pt18"
_cell_length_a       5.568798542022705
_cell_length_b       5.568798540755431
_cell_length_c       104.1017837524414
_cell_angle_alpha    90.0
_cell_angle_beta     90.0
_cell_angle_gamma    59.999999992472155

_space_group_name_H-M_alt    "P 1"
_space_group_IT_number       1

loop_
  _space_group_symop_operation_xyz
  'x, y, z'

loop_
  _atom_site_type_symbol
  _atom_site_label
  _atom_site_symmetry_multiplicity
  _atom_site_fract_x
  _atom_site_fract_y
  _atom_site_fract_z
  _atom_site_occupancy
  H   H1        1.0  0.00665535011879883  0.002505659107434374  0.00011549246971141962  1.0000
  Al  Al1       1.0  0.006666666381885129  0.007500000123591318  0.9989093312725832  1.0000
  Al  Al2       1.0  3.471866243886065e-10  0.0008333332934236367  0.9993461064535877  1.0000
  Al  Al3       1.0  0.0033333334160477383  0.004166666563673901  0.9991277187199451  1.0000
  Pt  Pt1       1.0  0.008333333083787286  0.009166666131104286  0.9991277187199451  1.0000
  Pt  Pt2       1.0  0.0016666670038127346  0.002499999976826628  0.9989093312725832  1.0000
  Pt  Pt3       1.0  0.005000000259317278  0.005833332957409739  0.9993461064535877  1.0000
  Pt  Pt4       1.0  0.008333333161843837  0.004166666563673901  0.9991277187199451  1.0000
  Pt  Pt5       1.0  0.0016666666360890302  0.007500000123591318  0.9989093312725832  1.0000
  Pt  Pt6       1.0  0.005000000051172871  0.0008333332934236367  0.9993461064535877  1.0000
  Pt  Pt7       1.0  0.0033333336724700046  0.009166666131104286  0.9991277187199451  1.0000
  Pt  Pt8       1.0  0.006666666749608833  0.002499999976826628  0.9989093312725832  1.0000
  Pt  Pt9       1.0  5.13521179176406e-10  0.005833332957409739  0.9993461064535877  1.0000
  Al  Al4       1.0  0.006666666381885129  0.007500000123591318  0.9995644939009496  1.0000
  Al  Al5       1.0  0.009999999314190383  0.0008333342589808126  0.9999914253231023  1.0000
  Al  Al6       1.0  0.0033333307540819794  0.0041666638601138084  0.9997876759760053  1.0000
  Pt  Pt10      1.0  0.008331006152359958  0.00916433875208758  0.9997815226605258  1.0000
  Pt  Pt11      1.0  0.0016666670038127346  0.002499999976826628  0.9995644939009496  1.0000
  Pt  Pt12      1.0  0.004983026489621401  0.005816360779595252  0.0  1.0000
  Pt  Pt13      1.0  0.008331006851872415  0.004171317845701479  0.9997815226605258  1.0000
  Pt  Pt14      1.0  0.0016666666360890302  0.007500000123591318  0.9995644939009496  1.0000
  Pt  Pt15      1.0  0.004983025414653779  0.000867281897504187  0.0  1.0000
  Pt  Pt16      1.0  0.0033379831967224917  0.009164340296979063  0.9997815226605258  1.0000
  Pt  Pt17      1.0  0.006666666749608833  0.002499999976826628  0.9995644939009496  1.0000
  Pt  Pt18      1.0  3.3951016232379536e-05  0.005816357689812288  5.72561224475587e-10  1.0000
