data_image0
_chemical_formula_structural       HNi12V6Ni12V6
_chemical_formula_sum              "H1 Ni24 V12"
_cell_length_a       8.830714735730224
_cell_length_b       5.6927290143011735
_cell_length_c       100.43404388427734
_cell_angle_alpha    84.76620749622658
_cell_angle_beta     88.5745441038572
_cell_angle_gamma    74.89751924826334

_space_group_name_H-M_alt    "P 1"
_space_group_IT_number       1

loop_
  _space_group_symop_operation_xyz
  'x, y, z'

loop_
  _atom_site_type_symbol
  _atom_site_label
  _atom_site_symmetry_multiplicity
  _atom_site_fract_x
  _atom_site_fract_y
  _atom_site_fract_z
  _atom_site_occupancy
  H   H1        1.0  0.0028570002267108902  0.009827869603745728  0.9999595867760225  1.0000
  Ni  Ni1       1.0  0.00036249446053483665  0.007958061521418317  0.999665276938034  1.0000
  Ni  Ni2       1.0  0.003941217425844279  0.0012151323391122266  0.9998137956085614  1.0000
  Ni  Ni3       1.0  0.0025394198510102148  0.004571278863837554  0.9999449827538983  1.0000
  Ni  Ni4       1.0  0.0017774710788063005  0.00899612117006867  0.9998585882135115  1.0000
  Ni  Ni5       1.0  0.0003517912934418483  0.0026021853039449494  0.9999857760413042  1.0000
  Ni  Ni6       1.0  0.0032276749432303313  0.005714149612234041  0.9997129241652294  1.0000
  Ni  Ni7       1.0  0.004648208652809228  0.007958061521418317  0.9992323836874425  1.0000
  Ni  Ni8       1.0  0.0032196373497301754  0.0012913946177343309  0.9993766814228329  1.0000
  Ni  Ni9       1.0  0.0017910658878095525  0.004624727856941169  0.9995209791815708  1.0000
  Ni  Ni10      1.0  0.0010610568984457476  0.009052866518392624  0.9994251336620794  1.0000
  Ni  Ni11      1.0  0.0046324853979199596  0.0023862000399789474  0.9995694315492634  1.0000
  Ni  Ni12      1.0  0.0024896281635432083  0.005719533194131724  0.9992808359042118  1.0000
  V   V1        1.0  0.004578724393972167  0.006907119924779223  0.9998950354571495  1.0000
  V   V2        1.0  0.0024974897537628875  0.00017213065609443135  0.9996173537877044  1.0000
  V   V3        1.0  0.001089174417087773  0.003466667813966577  0.9997598007172609  1.0000
  V   V4        1.0  0.003926061244808758  0.006838797697991268  0.9994730563479235  1.0000
  V   V5        1.0  0.001783204178129921  0.00017213065609443135  0.9991844609765153  1.0000
  V   V6        1.0  0.00035463279867946085  0.00350546403351412  0.9993287587343581  1.0000
  Ni  Ni13      1.0  0.005362494439435506  0.007958061521418317  0.9996652770916407  1.0000
  Ni  Ni14      1.0  0.00894121708825498  0.0012151323391122266  0.9998137951693898  1.0000
  Ni  Ni15      1.0  0.00753941993540754  0.004571278863837554  0.9999449823138037  1.0000
  Ni  Ni16      1.0  0.006777470741217002  0.00899612117006867  0.9998585883678104  1.0000
  Ni  Ni17      1.0  0.005351791272342517  0.0026021853039449494  0.9999857761949108  1.0000
  Ni  Ni18      1.0  0.008227674605641031  0.005714149612234041  0.9997129243195283  1.0000
  Ni  Ni19      1.0  0.009648209159193176  0.007958061521418317  0.9992323838398954  1.0000
  Ni  Ni20      1.0  0.0082196374341275  0.0012913946177343309  0.9993766812794735  1.0000
  Ni  Ni21      1.0  0.006791065550220254  0.004624727856941169  0.9995209790391344  1.0000
  Ni  Ni22      1.0  0.006061056771849761  0.009052866518392624  0.9994251335191815  1.0000
  Ni  Ni23      1.0  0.009632485482317285  0.0023862000399789474  0.9995694311091687  1.0000
  Ni  Ni24      1.0  0.007489627825953908  0.005719533194131724  0.9992808357617754  1.0000
  V   V7        1.0  0.009578724478369492  0.006907119924779223  0.9998950356105255  1.0000
  V   V8        1.0  0.007497489627166901  0.00017213065609443135  0.9996173539415418  1.0000
  V   V9        1.0  0.006089174290491786  0.003466667813966577  0.9997598002776278  1.0000
  V   V10       1.0  0.008926061329206083  0.006838797697991268  0.9994730562045642  1.0000
  V   V11       1.0  0.006783204262527246  0.00017213065609443135  0.9991844608331559  1.0000
  V   V12       1.0  0.005354632777580129  0.00350546403351412  0.9993287585912295  1.0000
