data_image0
_chemical_formula_structural       Si8Pt24H
_chemical_formula_sum              "Si8 Pt24 H1"
_cell_length_a       7.713176727294922
_cell_length_b       7.97960629529697
_cell_length_c       38.081573486328125
_cell_angle_alpha    91.14291965242694
_cell_angle_beta     90.0
_cell_angle_gamma    90.0

_space_group_name_H-M_alt    "P 1"
_space_group_IT_number       1

loop_
  _space_group_symop_operation_xyz
  'x, y, z'

loop_
  _atom_site_type_symbol
  _atom_site_label
  _atom_site_symmetry_multiplicity
  _atom_site_fract_x
  _atom_site_fract_y
  _atom_site_fract_z
  _atom_site_occupancy
  Si  Si1       1.0  0.0025562814665593537  0.006614220561202187  9.91182559968817e-05  1.0000
  Si  Si2       1.0  0.0025562817080480704  0.002129654922791173  0.9990348702103652  1.0000
  Si  Si3       1.0  0.007556280471625841  0.0031128201317748164  0.9998925893242187  1.0000
  Si  Si4       1.0  0.007556281920558142  0.007946221637729171  0.9988637669918141  1.0000
  Si  Si5       1.0  0.0025562817080480704  0.007060292440558964  0.9990203358398874  1.0000
  Si  Si6       1.0  0.0025562802591157703  0.0011887627639781753  0.9999596149731659  1.0000
  Si  Si7       1.0  0.007556281920558142  0.0028768591741747326  0.9988492324766348  1.0000
  Si  Si8       1.0  0.007556282403535575  0.007821367738993891  0.9999575759653526  1.0000
  Pt  Pt1       1.0  0.00956462234966713  0.005517502906111834  0.9999776078248935  1.0000
  Pt  Pt2       1.0  0.009582105166798305  0.0006073666357240742  0.9989379724191806  1.0000
  Pt  Pt3       1.0  0.0005304583410635482  0.007483790832148815  0.9985447867808617  1.0000
  Pt  Pt4       1.0  0.0004178948658026724  0.0024806592796129943  0.9996170805376189  1.0000
  Pt  Pt5       1.0  0.005530458191340544  0.00252272348895035  0.9982916168744318  1.0000
  Pt  Pt6       1.0  0.005544198416340952  0.00759302777913586  0.9993379191037299  1.0000
  Pt  Pt7       1.0  0.004582105437265668  0.004399147519609867  0.9989461302680634  1.0000
  Pt  Pt8       1.0  0.004510834389340953  0.008911785848680286  3.72473677942156e-05  1.0000
  Pt  Pt9       1.0  0.0005304583410635482  0.004399147519609867  0.9989461302680634  1.0000
  Pt  Pt10      1.0  0.0006017278796837839  0.008911785848680286  3.724932427340352e-05  1.0000
  Pt  Pt11      1.0  0.009582105166798305  0.00252272348895035  0.9982916168744318  1.0000
  Pt  Pt12      1.0  0.009568360595000998  0.007593028713024438  0.999337919498929  1.0000
  Pt  Pt13      1.0  0.004582105437265668  0.007483790832148815  0.9985447867808617  1.0000
  Pt  Pt14      1.0  0.004694665260009704  0.002480658812668705  0.9996170801443715  1.0000
  Pt  Pt15      1.0  0.005547941008471718  0.0055175033730561224  0.9999776074355493  1.0000
  Pt  Pt16      1.0  0.005530458191340544  0.0006073666357240742  0.9989379724191806  1.0000
  Pt  Pt17      1.0  0.0025562817080480704  0.00044788505321528724  0.9984985751804106  1.0000
  Pt  Pt18      1.0  0.002556280500604487  0.005280647750198164  0.9995328836985464  1.0000
  Pt  Pt19      1.0  0.007556281920558142  0.0053868276129246115  0.9985113691886396  1.0000
  Pt  Pt20      1.0  0.007556279988648408  0.0003109406535549507  0.9996383601851341  1.0000
  Pt  Pt21      1.0  0.0025562817080480704  0.0046196867081745524  0.9983250344666539  1.0000
  Pt  Pt22      1.0  0.002556278568694754  0.00968905944450335  0.9993686019488137  1.0000
  Pt  Pt23      1.0  0.007556281920558142  0.009558628830123607  0.9983378284730531  1.0000
  Pt  Pt24      1.0  0.007556281437580708  0.004664788390112365  0.9993615606067028  1.0000
  H   H1        1.0  0.0014870877586688036  0.003880653514905579  0.9999688734209573  1.0000
