data_image0
_chemical_formula_structural       COCaSi2CaSi2CaSi2CaSi2CaSi2CaSi2CaSi2CaSi2
_chemical_formula_sum              "C1 O1 Ca8 Si16"
_cell_length_a       8.273919941085675
_cell_length_b       8.273920059204102
_cell_length_c       100.07461547851562
_cell_angle_alpha    90.0
_cell_angle_beta     90.0
_cell_angle_gamma    120.00000047224607

_space_group_name_H-M_alt    "P 1"
_space_group_IT_number       1

loop_
  _space_group_symop_operation_xyz
  'x, y, z'

loop_
  _atom_site_type_symbol
  _atom_site_label
  _atom_site_symmetry_multiplicity
  _atom_site_fract_x
  _atom_site_fract_y
  _atom_site_fract_z
  _atom_site_occupancy
  C   C1        1.0  0.005000231666565182  0.001666208701847158  0.00017301226635246835  1.0000
  O   O1        1.0  0.005000231666565182  0.001666208701847158  0.00029292244194166646  1.0000
  Ca  Ca1       1.0  0.0025024587537852737  0.004167330286831094  0.9997653554305183  1.0000
  Si  Si1       1.0  0.004166866827410821  0.0024995098742202587  0.0  1.0000
  Si  Si2       1.0  0.0008335965187169947  0.0008329075314703342  0.9999998725411642  1.0000
  Ca  Ca2       1.0  0.002499799735276238  0.004166003028801069  0.9993402983789904  1.0000
  Si  Si3       1.0  0.004166466505922512  0.002499336474907267  0.9995549569265372  1.0000
  Si  Si4       1.0  0.0008331330296172186  0.0008326697367546206  0.9995549569265372  1.0000
  Ca  Ca3       1.0  0.0025024587537852737  0.009167329827581297  0.9997653554305183  1.0000
  Si  Si5       1.0  0.004166866827410821  0.007499509893355667  0.0  1.0000
  Si  Si6       1.0  0.0008335965187169947  0.0058329076068863546  0.9999998725411642  1.0000
  Ca  Ca4       1.0  0.002499799735276238  0.009166003019796172  0.9993402983789904  1.0000
  Si  Si7       1.0  0.004166466505922512  0.007499336297060533  0.9995549569265372  1.0000
  Si  Si8       1.0  0.0008331330296172186  0.0058326695589078865  0.9995549569265372  1.0000
  Ca  Ca5       1.0  0.007502458805775077  0.004167330317328444  0.9997653554305183  1.0000
  Si  Si9       1.0  0.009166867139349643  0.002499510175393649  0.0  1.0000
  Si  Si10      1.0  0.005833596505719543  0.0008329075013337516  0.9999998725411642  1.0000
  Ca  Ca6       1.0  0.007499799527317023  0.0041660029293239115  0.9993402983789904  1.0000
  Si  Si11      1.0  0.009166466817861334  0.0024993365790985152  0.9995549569265372  1.0000
  Si  Si12      1.0  0.005833133276568786  0.0008326698084522412  0.9995549569265372  1.0000
  Ca  Ca7       1.0  0.007502458805775077  0.009167330195762323  0.9997653554305183  1.0000
  Si  Si13      1.0  0.009166867139349643  0.0074995099412663024  0.0  1.0000
  Si  Si14      1.0  0.005833596505719543  0.005832907492328854  0.9999998725411642  1.0000
  Ca  Ca8       1.0  0.007499799527317023  0.009166002807757789  0.9993402983789904  1.0000
  Si  Si15      1.0  0.009166466817861334  0.007499336570093618  0.9995549569265372  1.0000
  Si  Si16      1.0  0.005833133276568786  0.005832669799447343  0.9995549569265372  1.0000
