data_image0
_chemical_formula_structural       HAl4Fe6Si6Al4Fe6Si6
_chemical_formula_sum              "H1 Al8 Fe12 Si12"
_cell_length_a       4.628602113565061
_cell_length_b       6.361147593028891
_cell_length_c       32.49689865112305
_cell_angle_alpha    78.10006949481425
_cell_angle_beta     73.22232394097094
_cell_angle_gamma    100.60816593629502

_space_group_name_H-M_alt    "P 1"
_space_group_IT_number       1

loop_
  _space_group_symop_operation_xyz
  'x, y, z'

loop_
  _atom_site_type_symbol
  _atom_site_label
  _atom_site_symmetry_multiplicity
  _atom_site_fract_x
  _atom_site_fract_y
  _atom_site_fract_z
  _atom_site_occupancy
  H   H1        1.0  0.002732491354837045  0.00119136716751714  0.9998891934671762  1.0000
  Al  Al1       1.0  0.004136723470269247  0.006776836207665294  0.9980805532277939  1.0000
  Al  Al2       1.0  0.009458348667972485  0.0034367978231197747  0.9988208620021642  1.0000
  Al  Al3       1.0  0.0005289059371311486  0.006478625489823042  0.9975689241237347  1.0000
  Al  Al4       1.0  0.005863276401289785  0.0032750116535280272  0.9983157195698771  1.0000
  Fe  Fe1       1.0  0.006351083655757996  0.009744037436832345  0.9987351699616231  1.0000
  Fe  Fe2       1.0  0.003648915800489767  0.00030780986265294277  0.9976611028757955  1.0000
  Fe  Fe3       1.0  0.008648779366399252  0.006846809068461934  0.998329051261542  1.0000
  Fe  Fe4       1.0  0.001351220352566509  0.003205038482823507  0.9980672215549117  1.0000
  Fe  Fe5       1.0  0.009530796737652095  0.007005486242192504  0.9991435681166648  1.0000
  Fe  Fe6       1.0  0.0005261624470696228  0.002965724828022448  0.9995023729606737  1.0000
  Si  Si1       1.0  0.005583802714199151  0.0037602765701232384  0.9996186481410436  1.0000
  Si  Si2       1.0  0.0026303325257687597  0.00021080575180671833  0.9993092379635712  1.0000
  Si  Si3       1.0  0.004511960961942805  0.005931993854283754  0.9990002058434152  1.0000
  Si  Si4       1.0  0.008208190049379534  0.00026265304974246607  0.9979355362827339  1.0000
  Si  Si5       1.0  0.0017918100040385104  0.009789194733973886  0.9984607365105873  1.0000
  Si  Si6       1.0  0.007130970797525683  0.009549521895938865  0.9994723627804337  1.0000
  Al  Al5       1.0  0.004136723470269247  0.006776836207665294  0.9957724498401896  1.0000
  Al  Al6       1.0  0.009471093708049938  0.003573221751554518  0.9965192453206573  1.0000
  Al  Al7       1.0  0.0005289059371311486  0.006478625489823042  0.9952608207361304  1.0000
  Al  Al8       1.0  0.005863276401289785  0.0032750116535280272  0.9960076161822728  1.0000
  Fe  Fe7       1.0  0.006351083655757996  0.009744037436832345  0.9964270665740189  1.0000
  Fe  Fe8       1.0  0.003648915800489767  0.00030780986265294277  0.9953529994881912  1.0000
  Fe  Fe9       1.0  0.008648779366399252  0.006846809068461934  0.9960209478739378  1.0000
  Fe  Fe10      1.0  0.001351220352566509  0.003205038482823507  0.9957591186258484  1.0000
  Fe  Fe11      1.0  0.009602210501744717  0.007101882468730345  0.9968491959452255  1.0000
  Fe  Fe12      1.0  0.00039778899393002156  0.002949965082555096  0.9972389734928043  1.0000
  Si  Si7       1.0  0.005430626403510606  0.004156300723242683  0.9973953349110477  1.0000
  Si  Si8       1.0  0.0027578949639228516  0.000451216771044798  0.9969681695788156  1.0000
  Si  Si9       1.0  0.004569373144703196  0.005895546828042758  0.996692834524822  1.0000
  Si  Si10      1.0  0.008208190049379534  0.00026265304974246607  0.9956274328951297  1.0000
  Si  Si11      1.0  0.0017918100040385104  0.009789194733973886  0.9961526331229831  1.0000
  Si  Si12      1.0  0.007242104541845087  0.009600630664025188  0.9971199998634901  1.0000
