data_image0
_chemical_formula_structural       Si8Sb8Pt8H
_chemical_formula_sum              "Si8 Sb8 Pt8 H1"
_cell_length_a       6.431256294250488
_cell_length_b       6.447575569152832
_cell_length_c       104.99898529052734
_cell_angle_alpha    90.0
_cell_angle_beta     90.0
_cell_angle_gamma    90.0

_space_group_name_H-M_alt    "P 1"
_space_group_IT_number       1

loop_
  _space_group_symop_operation_xyz
  'x, y, z'

loop_
  _atom_site_type_symbol
  _atom_site_label
  _atom_site_symmetry_multiplicity
  _atom_site_fract_x
  _atom_site_fract_y
  _atom_site_fract_z
  _atom_site_occupancy
  Si  Si1       1.0  0.00853992792731574  0.0026593630061791753  0.9992162946622715  1.0000
  Si  Si2       1.0  0.0035399279736555555  0.002345167124842825  0.9993807483047866  1.0000
  Si  Si3       1.0  0.0013788200388297988  0.0077398179681154805  0.9999444388515194  1.0000
  Si  Si4       1.0  0.006496994339387759  0.007390791680736804  0.9997769220683241  1.0000
  Si  Si5       1.0  0.0014600718351927091  0.007345167159509719  0.9993807483047866  1.0000
  Si  Si6       1.0  0.006460071933664814  0.007659363040846069  0.9992162946622715  1.0000
  Si  Si7       1.0  0.008503004942345115  0.0023907909238429542  0.9997769220683241  1.0000
  Si  Si8       1.0  0.0036211796252065454  0.002739818222339369  0.9999444388515194  1.0000
  Sb  Sb1       1.0  0.0011673001452540022  6.480960008341733e-05  0.9991066324093854  1.0000
  Sb  Sb2       1.0  0.0061672998816963065  0.004939720372951436  0.9994904105576727  1.0000
  Sb  Sb3       1.0  0.008821251728104364  0.005020092677457149  5.210631634957991e-05  1.0000
  Sb  Sb4       1.0  0.0038326997360002227  0.009939720696509113  0.9996621769092763  1.0000
  Sb  Sb5       1.0  0.008832699400036568  0.009939720696509113  0.9994904105576727  1.0000
  Sb  Sb6       1.0  0.0038326997360002227  0.005064809503846676  0.9991066324093854  1.0000
  Sb  Sb7       1.0  0.0011673001452540022  0.004939720372951436  0.9996621769092763  1.0000
  Sb  Sb8       1.0  0.006178748132876192  2.009310095297974e-05  5.210631634957991e-05  1.0000
  Pt  Pt1       1.0  0.005116895032053064  0.001187089996379667  0.9991801929153739  1.0000
  Pt  Pt2       1.0  0.00011689519605256421  0.00381744035131042  0.9994168497678498  1.0000
  Pt  Pt3       1.0  0.004866003166714638  0.006343872286312527  0.9999663820878033  1.0000
  Pt  Pt4       1.0  0.00988310424967981  0.008817440097086533  0.9997357376990992  1.0000
  Pt  Pt5       1.0  0.004883104875267307  0.008817440097086533  0.9994168497678498  1.0000
  Pt  Pt6       1.0  0.00988310424967981  0.006187090103269257  0.9991801929153739  1.0000
  Pt  Pt7       1.0  0.005116895032053064  0.00381744035131042  0.9997357376990992  1.0000
  Pt  Pt8       1.0  0.00013399739334546453  0.0013438721072002418  0.9999663820878033  1.0000
  H   H1        1.0  0.005005723500002447  0.009979906559871188  0.0  1.0000
