data_image0
_chemical_formula_structural       COIn6Au9
_chemical_formula_sum              "C1 O1 In6 Au9"
_cell_length_a       4.744082992603816
_cell_length_b       11.117246454652713
_cell_length_c       40.04691696166992
_cell_angle_alpha    97.63565003515434
_cell_angle_beta     108.46755611955456
_cell_angle_gamma    64.73966709058986

_space_group_name_H-M_alt    "P 1"
_space_group_IT_number       1

loop_
  _space_group_symop_operation_xyz
  'x, y, z'

loop_
  _atom_site_type_symbol
  _atom_site_label
  _atom_site_symmetry_multiplicity
  _atom_site_fract_x
  _atom_site_fract_y
  _atom_site_fract_z
  _atom_site_occupancy
  C   C1        1.0  0.0048969001017341324  0.00305829320082665  0.000523668966315144  1.0000
  O   O1        1.0  0.0048969001017341324  0.00305829320082665  0.0008233173644142594  1.0000
  In  In1       1.0  0.0032905794038297206  0.006407444563933773  0.00024294929188853708  1.0000
  In  In2       1.0  0.005674036925313336  0.0005124206396786119  0.9989295547410935  1.0000
  In  In3       1.0  0.009054351829150147  0.00380667694544963  0.999556230821777  1.0000
  In  In4       1.0  0.001132835240270228  0.006116354825208323  0.9993269900351458  1.0000
  In  In5       1.0  0.004503350779693517  0.009487579499267255  0.9999781065621253  1.0000
  In  In6       1.0  0.007799502368232334  0.0027830216153824265  0.9987036983043411  1.0000
  Au  Au1       1.0  0.005745647681655876  0.005476615447638379  0.9989429451823152  1.0000
  Au  Au2       1.0  0.009929897411177857  0.008366566467552917  0.999717897426672  1.0000
  Au  Au3       1.0  0.002258677923659  0.0022489570537962827  0.00016771325939428426  1.0000
  Au  Au4       1.0  0.007727891214296912  0.007818827038999103  0.9986903081544157  1.0000
  Au  Au5       1.0  0.0010612244588822308  0.0011521602488249996  0.9993135996015263  1.0000
  Au  Au6       1.0  0.005087271166774918  0.0038768742500628404  0.9999676466998543  1.0000
  Au  Au7       1.0  0.0034034361123239246  0.008314388033492846  0.9991282725491695  1.0000
  Au  Au8       1.0  0.007358849383608428  0.0011480205882945776  0.9997949861219022  1.0000
  Au  Au9       1.0  7.010281674418803e-05  0.004981054453144638  0.998504980744153  1.0000
