data_image0
_chemical_formula_structural       COTi4Mn8
_chemical_formula_sum              "C1 O1 Ti4 Mn8"
_cell_length_a       4.752354621887207
_cell_length_b       4.752354520907264
_cell_length_c       101.32460021972656
_cell_angle_alpha    90.0
_cell_angle_beta     90.0
_cell_angle_gamma    120.00000070289151

_space_group_name_H-M_alt    "P 1"
_space_group_IT_number       1

loop_
  _space_group_symop_operation_xyz
  'x, y, z'

loop_
  _atom_site_type_symbol
  _atom_site_label
  _atom_site_symmetry_multiplicity
  _atom_site_fract_x
  _atom_site_fract_y
  _atom_site_fract_z
  _atom_site_occupancy
  C   C1        1.0  0.0042090295240486  0.003418128735301519  7.358298167326742e-05  1.0000
  O   O1        1.0  0.0042090295240486  0.003418128735301519  0.00019201448096043484  1.0000
  Ti  Ti1       1.0  0.0033333343766754715  0.006666717403353708  0.9995958727372817  1.0000
  Ti  Ti2       1.0  0.006666602567486098  0.003333328831719569  0.999968674275184  1.0000
  Ti  Ti3       1.0  0.006666667687811088  0.00333338381959548  0.9996931559016169  1.0000
  Ti  Ti4       1.0  0.0033333343766754715  0.006666717403353708  0.9993067171554305  1.0000
  Mn  Mn1       1.0  0.006497198376245656  0.008248618574215483  0.9998366093912664  1.0000
  Mn  Mn2       1.0  0.003443365788738443  0.0017217327369967133  0.9994512947992925  1.0000
  Mn  Mn3       1.0  0.008278319092197261  0.0017217327369967133  0.9994512947992925  1.0000
  Mn  Mn4       1.0  0.0017514565944412135  0.0035029286388834693  0.9998366105677753  1.0000
  Mn  Mn5       1.0  0.0017515259830022134  0.008248512671639655  0.9998366146855563  1.0000
  Mn  Mn6       1.0  0.008278318770409854  0.006556685984793013  0.9994512947992925  1.0000
  Mn  Mn7       1.0  8.500012296101926e-10  5.0250004394396485e-08  0.9996445143194493  1.0000
  Mn  Mn8       1.0  0.009999999523338205  0.009999950289149876  0.0  1.0000
