data_image0
_chemical_formula_structural       COCo24
_chemical_formula_sum              "C1 O1 Co24"
_cell_length_a       6.539008455222681
_cell_length_b       4.690155177841973
_cell_length_c       102.12966918945312
_cell_angle_alpha    105.27658316306774
_cell_angle_beta     79.10660468998239
_cell_angle_gamma    66.52539860919913

_space_group_name_H-M_alt    "P 1"
_space_group_IT_number       1

loop_
  _space_group_symop_operation_xyz
  'x, y, z'

loop_
  _atom_site_type_symbol
  _atom_site_label
  _atom_site_symmetry_multiplicity
  _atom_site_fract_x
  _atom_site_fract_y
  _atom_site_fract_z
  _atom_site_occupancy
  C   C1        1.0  0.003825577048100865  0.006887057548642374  0.0002152254122704469  1.0000
  O   O1        1.0  0.003825577048100865  0.006887057548642374  0.0003327227547105762  1.0000
  Co  Co1       1.0  0.0002777778110795472  0.0024999999252348208  0.9991798970419552  1.0000
  Co  Co2       1.0  0.003611111262378088  0.0024999999252348208  0.9992605631609599  1.0000
  Co  Co3       1.0  0.00694444427855906  0.0024999999252348208  0.9990992311923974  1.0000
  Co  Co4       1.0  0.006388889185402876  0.007499999775704462  0.9992874514829071  1.0000
  Co  Co5       1.0  0.009722222781740607  0.007499999775704462  0.9991261197991335  1.0000
  Co  Co6       1.0  0.0030555555890651453  0.007499999775704462  0.9992067856574661  1.0000
  Co  Co7       1.0  0.0002777778110795472  0.0024999999252348208  0.9994218948429785  1.0000
  Co  Co8       1.0  0.003611111262378088  0.0024999999252348208  0.9995025606701745  1.0000
  Co  Co9       1.0  0.00694444427855906  0.0024999999252348208  0.9993412289934207  1.0000
  Co  Co10      1.0  0.006388889185402876  0.007499999775704462  0.9995294492839304  1.0000
  Co  Co11      1.0  0.009722222781740607  0.007499999775704462  0.9993681176001568  1.0000
  Co  Co12      1.0  0.0030555555890651453  0.007499999775704462  0.9994487834584894  1.0000
  Co  Co13      1.0  0.0002777778110795472  0.0024999999252348208  0.9996638920603845  1.0000
  Co  Co14      1.0  0.003611111262378088  0.0024999999252348208  0.9997445581793891  1.0000
  Co  Co15      1.0  0.00694444427855906  0.0024999999252348208  0.9995832262108266  1.0000
  Co  Co16      1.0  0.006388889185402876  0.007499999775704462  0.999771446793145  1.0000
  Co  Co17      1.0  0.009722222781740607  0.007499999775704462  0.9996101148175627  1.0000
  Co  Co18      1.0  0.0030555555890651453  0.007499999775704462  0.9996907806758953  1.0000
  Co  Co19      1.0  0.0002777778110795472  0.0024999999252348208  0.9999058895695991  1.0000
  Co  Co20      1.0  0.003611111262378088  0.0024999999252348208  0.9999865556886037  1.0000
  Co  Co21      1.0  0.00694444427855906  0.0024999999252348208  0.9998252237200412  1.0000
  Co  Co22      1.0  0.006388889185402876  0.007499999775704462  1.3444302359601927e-05  1.0000
  Co  Co23      1.0  0.009722222781740607  0.007499999775704462  0.9998521123267773  1.0000
  Co  Co24      1.0  0.0030555555890651453  0.007499999775704462  0.99993277818511  1.0000
