data_image0
_chemical_formula_structural       COIr4Sn8
_chemical_formula_sum              "C1 O1 Ir4 Sn8"
_cell_length_a       4.572421073913574
_cell_length_b       4.572421073913574
_cell_length_c       108.79827880859375
_cell_angle_alpha    90.0
_cell_angle_beta     90.0
_cell_angle_gamma    90.0

_space_group_name_H-M_alt    "P 1"
_space_group_IT_number       1

loop_
  _space_group_symop_operation_xyz
  'x, y, z'

loop_
  _atom_site_type_symbol
  _atom_site_label
  _atom_site_symmetry_multiplicity
  _atom_site_fract_x
  _atom_site_fract_y
  _atom_site_fract_z
  _atom_site_occupancy
  C   C1        1.0  0.007500001205800942  0.005000000260713717  0.00015919786884779173  1.0000
  O   O1        1.0  0.007500001205800942  0.005000000260713717  0.0002694934070259421  1.0000
  Ir  Ir1       1.0  0.0024999982972135335  1.5999999926451786e-09  0.9995543556458903  1.0000
  Ir  Ir2       1.0  0.007500000391070576  0.0050000006680789005  0.999841653483021  1.0000
  Ir  Ir3       1.0  0.0024999982972135335  1.5999999926451786e-09  0.9989600101422413  1.0000
  Ir  Ir4       1.0  0.007499998761609842  0.005000001482809267  0.9992571828940658  1.0000
  Sn  Sn1       1.0  0.0074999995763402084  0.009999998077236333  0.0  1.0000
  Sn  Sn2       1.0  0.0025000015561350004  0.005000000260713717  0.9999999994521546  1.0000
  Sn  Sn3       1.0  0.0024999982972135335  0.005000001482809267  0.9997029422957253  1.0000
  Sn  Sn4       1.0  0.007499998761609842  1.5999999926451786e-09  0.9997029422957253  1.0000
  Sn  Sn5       1.0  0.007499998761609842  1.5999999926451786e-09  0.9994057695439008  1.0000
  Sn  Sn6       1.0  0.0024999982972135335  0.005000001482809267  0.9994057695439008  1.0000
  Sn  Sn7       1.0  0.0024999982972135335  0.005000001482809267  0.9991085965181536  1.0000
  Sn  Sn8       1.0  0.007499998761609842  1.5999999926451786e-09  0.9991085965181536  1.0000
