data_image0
_chemical_formula_structural       COPt12V6
_chemical_formula_sum              "C1 O1 Pt12 V6"
_cell_length_a       7.271757302315183
_cell_length_b       4.8416080416197
_cell_length_c       98.15087127685547
_cell_angle_alpha    90.14382006317585
_cell_angle_beta     90.39114835576913
_cell_angle_gamma    98.0672011130074

_space_group_name_H-M_alt    "P 1"
_space_group_IT_number       1

loop_
  _space_group_symop_operation_xyz
  'x, y, z'

loop_
  _atom_site_type_symbol
  _atom_site_label
  _atom_site_symmetry_multiplicity
  _atom_site_fract_x
  _atom_site_fract_y
  _atom_site_fract_z
  _atom_site_occupancy
  C   C1        1.0  0.007744716720781801  0.00161731230288001  4.117370509511269e-06  1.0000
  O   O1        1.0  0.007744716720781801  0.00161731230288001  0.00012637837708627859  1.0000
  Pt  Pt1       1.0  0.002238080731537184  0.0016184017309957533  0.9994574367631384  1.0000
  Pt  Pt2       1.0  0.0067835353334385964  0.005709310805124887  0.9993270673293203  1.0000
  Pt  Pt3       1.0  0.005034647045448765  0.00022727288676784683  0.9992852671137274  1.0000
  Pt  Pt4       1.0  0.0004891921201538453  0.0061363637983279165  0.9994156365151187  1.0000
  Pt  Pt5       1.0  0.0031471717036604275  0.003436583658294381  0.9997181750843246  1.0000
  Pt  Pt6       1.0  0.0076926265642766455  0.0075274929793192205  0.9995878059543059  1.0000
  Pt  Pt7       1.0  0.005943737758857202  0.002045454663350126  0.999546005738402  1.0000
  Pt  Pt8       1.0  0.0013982830275983873  0.00795454551963358  0.9996763748362467  1.0000
  Pt  Pt9       1.0  0.004056262417068865  0.005254765338697302  0.9999789134053494  1.0000
  Pt  Pt10      1.0  0.008601717277685083  0.009345674659722141  0.9998485439716928  1.0000
  Pt  Pt11      1.0  0.00685282847226564  0.0038636364399324058  0.9998067437558009  1.0000
  Pt  Pt12      1.0  0.002307373870364228  0.00977272761202243  0.999937113157388  1.0000
  V   V1        1.0  0.0040909092451971935  0.0068319283683721975  0.9995017212346606  1.0000
  V   V2        1.0  0.008636363847098606  0.0009228373886408911  0.9993713518330974  1.0000
  V   V3        1.0  0.00499999995860563  0.008650110048775118  0.9997624595556854  1.0000
  V   V4        1.0  0.009545454560507042  0.002741019165223171  0.999632090457772  1.0000
  V   V5        1.0  0.00590909118944368  0.00046829188057093623  2.3197909252275893e-05  1.0000
  V   V6        1.0  0.0004545455184009726  0.004559200816372886  0.9998928286859278  1.0000
