data_image0
_chemical_formula_structural       HFe2Pd2Fe2Pd2Fe2Pd2Fe2Pd2Fe2Pd2Fe2Pd2Fe2Pd2Fe2Pd2
_chemical_formula_sum              "H1 Fe16 Pd16"
_cell_length_a       7.411898612976074
_cell_length_b       7.537140846252441
_cell_length_c       100.14856719970703
_cell_angle_alpha    90.0
_cell_angle_beta     90.0
_cell_angle_gamma    90.0

_space_group_name_H-M_alt    "P 1"
_space_group_IT_number       1

loop_
  _space_group_symop_operation_xyz
  'x, y, z'

loop_
  _atom_site_type_symbol
  _atom_site_label
  _atom_site_symmetry_multiplicity
  _atom_site_fract_x
  _atom_site_fract_y
  _atom_site_fract_z
  _atom_site_occupancy
  H   H1        1.0  0.0024999992661902002  0.004999999901148449  8.552362239845542e-05  1.0000
  Fe  Fe1       1.0  6.999999795670974e-10  0.002500000197703101  0.9994184422839855  1.0000
  Fe  Fe2       1.0  6.999999795670974e-10  2.499999947957229e-10  0.9996065912179346  1.0000
  Pd  Pd1       1.0  0.0025000005227138297  0.002500000197703101  0.9996065912179346  1.0000
  Pd  Pd2       1.0  0.0025000005227138297  2.499999947957229e-10  0.9994184422839855  1.0000
  Fe  Fe3       1.0  0.009999999075198608  0.002500001186218607  0.9998184659966771  1.0000
  Fe  Fe4       1.0  0.009999999075198608  0.009999999802296898  0.9999625012084173  1.0000
  Pd  Pd3       1.0  0.0024999985122760226  0.0025000004448319773  0.0  1.0000
  Pd  Pd4       1.0  0.0024999987635807483  7.499999843871686e-10  0.9997962259743958  1.0000
  Fe  Fe5       1.0  6.999999795670974e-10  0.007500000593109303  0.9994184422839855  1.0000
  Fe  Fe6       1.0  6.999999795670974e-10  0.005000000395406202  0.9996065912179346  1.0000
  Pd  Pd5       1.0  0.0025000005227138297  0.007500000593109303  0.9996065912179346  1.0000
  Pd  Pd6       1.0  0.0025000005227138297  0.005000000395406202  0.9994184422839855  1.0000
  Fe  Fe7       1.0  0.009999999075198608  0.0075000010873670555  0.9998184659966771  1.0000
  Fe  Fe8       1.0  0.009999999075198608  0.004999999901148449  0.9999625012084173  1.0000
  Pd  Pd7       1.0  0.0024999985122760226  0.007500000593109303  0.0  1.0000
  Pd  Pd8       1.0  0.0024999987635807483  0.005000000889663955  0.9997962259743958  1.0000
  Fe  Fe9       1.0  0.005000000542818208  0.002500000197703101  0.9994184422839855  1.0000
  Fe  Fe10      1.0  0.005000000542818208  2.499999947957229e-10  0.9996065912179346  1.0000
  Pd  Pd9       1.0  0.007500000562922586  0.002500000197703101  0.9996065912179346  1.0000
  Pd  Pd10      1.0  0.007500000562922586  2.499999947957229e-10  0.9994184422839855  1.0000
  Fe  Fe11      1.0  0.004999999034989852  0.002500001186218607  0.9998184659966771  1.0000
  Fe  Fe12      1.0  0.004999999034989852  0.009999999802296898  0.9999625012084173  1.0000
  Pd  Pd11      1.0  0.007499998552484778  0.0025000004448319773  0.0  1.0000
  Pd  Pd12      1.0  0.007499998552484778  7.499999843871686e-10  0.9997962259743958  1.0000
  Fe  Fe13      1.0  0.005000000542818208  0.007500000593109303  0.9994184422839855  1.0000
  Fe  Fe14      1.0  0.005000000542818208  0.005000000395406202  0.9996065912179346  1.0000
  Pd  Pd13      1.0  0.007500000562922586  0.007500000593109303  0.9996065912179346  1.0000
  Pd  Pd14      1.0  0.007500000562922586  0.005000000395406202  0.9994184422839855  1.0000
  Fe  Fe15      1.0  0.004999999034989852  0.0075000010873670555  0.9998184659966771  1.0000
  Fe  Fe16      1.0  0.004999999034989852  0.004999999901148449  0.9999625012084173  1.0000
  Pd  Pd15      1.0  0.007499998552484778  0.007500000593109303  0.0  1.0000
  Pd  Pd16      1.0  0.007499998552484778  0.005000000889663955  0.9997962259743958  1.0000
