data_image0
_chemical_formula_structural       Ni6Sn8H
_chemical_formula_sum              "Ni6 Sn8 H1"
_cell_length_a       5.321216339372219
_cell_length_b       6.534834456179663
_cell_length_c       101.37854766845703
_cell_angle_alpha    92.35474951067783
_cell_angle_beta     93.78620023936097
_cell_angle_gamma    104.39494894559729

_space_group_name_H-M_alt    "P 1"
_space_group_IT_number       1

loop_
  _space_group_symop_operation_xyz
  'x, y, z'

loop_
  _atom_site_type_symbol
  _atom_site_label
  _atom_site_symmetry_multiplicity
  _atom_site_fract_x
  _atom_site_fract_y
  _atom_site_fract_z
  _atom_site_occupancy
  Ni  Ni1       1.0  0.00536946173555637  0.0012948367533445028  0.99990145016549  1.0000
  Ni  Ni2       1.0  0.008387279291226001  0.005024998706679225  0.9998161923908765  1.0000
  Ni  Ni3       1.0  0.0021203344548301555  0.007706007391983848  0.9999799765026532  1.0000
  Ni  Ni4       1.0  0.004042111165156779  0.008747374115457264  0.9995128115584768  1.0000
  Ni  Ni5       1.0  0.007137279749925169  0.0025249989189309935  0.9994292940885925  1.0000
  Ni  Ni6       1.0  0.0009469425008423915  0.004969748981814117  0.9995963291447992  1.0000
  Sn  Sn1       1.0  0.0031378560014469546  0.001383026773466348  0.00012414859941826012  1.0000
  Sn  Sn2       1.0  0.009053056945014501  0.003959327681769961  7.128456173233167e-05  1.0000
  Sn  Sn3       1.0  0.0031930579222013695  0.004331512041788052  0.9998428404613935  1.0000
  Sn  Sn4       1.0  0.00737407020946795  0.008267042468012997  0.9999777198912011  1.0000
  Sn  Sn5       1.0  0.0016311977328067725  0.008742122063369434  0.9997340122323078  1.0000
  Sn  Sn6       1.0  0.007703024678694932  0.0012526260673150916  0.9996785090127152  1.0000
  Sn  Sn7       1.0  0.001949490421039238  0.0017543675801026852  0.9994463316182357  1.0000
  Sn  Sn8       1.0  0.006134731698175731  0.005740380320642426  0.9995792916147  1.0000
  H   H1        1.0  0.007880674841729518  0.006646020882140234  4.4916003838144254e-05  1.0000
