data_image0
_chemical_formula_structural       COAg24Al12
_chemical_formula_sum              "C1 O1 Ag24 Al12"
_cell_length_a       5.114678659640261
_cell_length_b       9.969144147355136
_cell_length_c       107.117431640625
_cell_angle_alpha    89.576654294712
_cell_angle_beta     89.73516883307906
_cell_angle_gamma    89.50698184244573

_space_group_name_H-M_alt    "P 1"
_space_group_IT_number       1

loop_
  _space_group_symop_operation_xyz
  'x, y, z'

loop_
  _atom_site_type_symbol
  _atom_site_label
  _atom_site_symmetry_multiplicity
  _atom_site_fract_x
  _atom_site_fract_y
  _atom_site_fract_z
  _atom_site_occupancy
  C   C1        1.0  0.001423978058714455  0.0021638095967170703  0.00010960861783698672  1.0000
  O   O1        1.0  0.001423978058714455  0.0021638095967170703  0.0002216348728568954  1.0000
  Ag  Ag1       1.0  0.0017021831646677889  0.00962021525392969  0.9998345003611165  1.0000
  Ag  Ag2       1.0  0.006353596636114284  0.003311147510206897  0.9999963208541246  1.0000
  Ag  Ag3       1.0  0.006435011659669088  0.005821634432602143  0.9996268162036015  1.0000
  Ag  Ag4       1.0  0.0014394171155795814  0.0021765791302152853  0.9999479060509073  1.0000
  Ag  Ag5       1.0  0.0016044138919204163  0.004569257109454405  0.9995648216748751  1.0000
  Ag  Ag6       1.0  0.006684262369546497  0.008437790832945557  0.99974996301331  1.0000
  Ag  Ag7       1.0  0.003250047300888756  0.009409939865265898  0.9995569353359508  1.0000
  Ag  Ag8       1.0  0.008313508908566376  0.0032424525023878915  0.9997425902490756  1.0000
  Ag  Ag9       1.0  0.0035629184778949896  0.007059081080541975  0.9999499665503193  1.0000
  Ag  Ag10      1.0  0.008419449670487885  0.008157562168412175  0.9994949406526907  1.0000
  Ag  Ag11      1.0  0.003419449800057586  0.0020464513429785274  0.9996874469139135  1.0000
  Ag  Ag12      1.0  0.008576021782837994  0.005718728510411054  0.9998870040537441  1.0000
  Ag  Ag13      1.0  0.006435011661740613  0.008043856143262395  0.9992418038066041  1.0000
  Ag  Ag14      1.0  0.0014350116060987289  0.0019327455046817409  0.9994343100677394  1.0000
  Ag  Ag15      1.0  0.001435011598805899  0.00415496777590097  0.9990492971139167  1.0000
  Ag  Ag16      1.0  0.006604413786584456  0.0006803682282472503  0.999372315384232  1.0000
  Ag  Ag17      1.0  0.00660441378007199  0.002902590452753231  0.9989873024304411  1.0000
  Ag  Ag18      1.0  0.001604413887749038  0.006791479193820642  0.9991798089994012  1.0000
  Ag  Ag19      1.0  0.008250047553220598  0.007743273208564725  0.9989794160914364  1.0000
  Ag  Ag20      1.0  0.0032500473248529347  0.0016321620094250922  0.9991719223529952  1.0000
  Ag  Ag21      1.0  0.008250047563634878  0.005521050750492503  0.9993644290453869  1.0000
  Ag  Ag22      1.0  0.00341944979171483  0.006490895511711001  0.9989174212847446  1.0000
  Ag  Ag23      1.0  0.008419449687038614  0.00037978475634722577  0.9991099276694316  1.0000
  Ag  Ag24      1.0  0.0034194497958862083  0.004268673427344764  0.9993024339602186  1.0000
  Al  Al1       1.0  0.006564476704726297  0.0032161843350152534  0.9994978426442073  1.0000
  Al  Al2       1.0  0.0015644771765836135  0.007105073076082664  0.999690348934866  1.0000
  Al  Al3       1.0  0.006631114838321892  0.0008238955705592297  0.9998910574075706  1.0000
  Al  Al4       1.0  0.008289983925205696  0.0007630123257920224  0.9996239147394271  1.0000
  Al  Al5       1.0  0.003339368673178203  0.00463101800272675  0.9998223327929953  1.0000
  Al  Al6       1.0  0.008572236290916913  0.008140390378413843  0.9999870244170801  1.0000
  Al  Al7       1.0  0.0015644771870120585  0.0015495178651670721  0.998920322997832  1.0000
  Al  Al8       1.0  0.0065644766943120155  0.005438406793087475  0.9991128294120356  1.0000
  Al  Al9       1.0  0.0015644771661693316  0.009327295534154886  0.9993053359809153  1.0000
  Al  Al10      1.0  0.0032899840245399882  0.009096345235591906  0.9990463954009973  1.0000
  Al  Al11      1.0  0.008289983917912865  0.0029852345970112514  0.9992389017856044  1.0000
  Al  Al12      1.0  0.003289984022468462  0.006874123524931655  0.9994314080762157  1.0000
