data_image0
_chemical_formula_structural       HNb4Pt4Nb4Pt4
_chemical_formula_sum              "H1 Nb8 Pt8"
_cell_length_a       5.072866916656494
_cell_length_b       5.4660173773488365
_cell_length_c       108.26212310791016
_cell_angle_alpha    62.66163289207868
_cell_angle_beta     90.0
_cell_angle_gamma    90.0

_space_group_name_H-M_alt    "P 1"
_space_group_IT_number       1

loop_
  _space_group_symop_operation_xyz
  'x, y, z'

loop_
  _atom_site_type_symbol
  _atom_site_label
  _atom_site_symmetry_multiplicity
  _atom_site_fract_x
  _atom_site_fract_y
  _atom_site_fract_z
  _atom_site_occupancy
  H   H1        1.0  0.0011781143089514918  0.003253831286425544  0.9999895236992606  1.0000
  Nb  Nb1       1.0  0.008821885551520867  0.0014809516120288825  0.9990376466615913  1.0000
  Nb  Nb2       1.0  0.008821885551520867  0.0064809515199614875  0.9992900904194505  1.0000
  Nb  Nb3       1.0  0.0024156793264825086  0.0039809515659951855  0.9991638682652416  1.0000
  Nb  Nb4       1.0  0.0024156793264825086  0.008980951090313646  0.9994163120319955  1.0000
  Pt  Pt1       1.0  0.0038686267386377855  0.0039809515659951855  0.9994163120539996  1.0000
  Pt  Pt2       1.0  0.0038686267386377855  0.008980951090313646  0.9991638682432376  1.0000
  Pt  Pt3       1.0  0.007368937955776588  0.0064809515199614875  0.9990376466306925  1.0000
  Pt  Pt4       1.0  0.007368937955776588  0.0014809516120288825  0.9992900904503493  1.0000
  Nb  Nb5       1.0  0.008821885551520867  0.0014809516120288825  0.9995425336885487  1.0000
  Nb  Nb6       1.0  0.00863086046056177  0.006009084639691919  0.9997987408366055  1.0000
  Nb  Nb7       1.0  0.0024008820529195975  0.003981277638018109  0.999668797832508  1.0000
  Nb  Nb8       1.0  0.002302111353421178  0.008964693522864827  0.9999025558693049  1.0000
  Pt  Pt5       1.0  0.0037253674670465675  0.003774994502348971  0.9999124704382134  1.0000
  Pt  Pt6       1.0  0.003902617508006008  0.009006202874997128  0.9996680491929926  1.0000
  Pt  Pt7       1.0  0.007368937955776588  0.0064809515199614875  0.9995425336576499  1.0000
  Pt  Pt8       1.0  0.007446281064904099  0.0009937965572539384  0.999805716917889  1.0000
