data_image0
_chemical_formula_structural       HPt2Se4Pt2Se4
_chemical_formula_sum              "H1 Pt4 Se8"
_cell_length_a       6.153270721435547
_cell_length_b       6.551872730255127
_cell_length_c       100.26180267333984
_cell_angle_alpha    90.0
_cell_angle_beta     90.0
_cell_angle_gamma    90.0

_space_group_name_H-M_alt    "P 1"
_space_group_IT_number       1

loop_
  _space_group_symop_operation_xyz
  'x, y, z'

loop_
  _atom_site_type_symbol
  _atom_site_label
  _atom_site_symmetry_multiplicity
  _atom_site_fract_x
  _atom_site_fract_y
  _atom_site_fract_z
  _atom_site_occupancy
  H   H1        1.0  0.009999999200850504  0.009999999181238976  9.232608930553288e-05  1.0000
  Pt  Pt1       1.0  7.999999934131639e-10  0.005000000727787578  0.9994239406210966  1.0000
  Pt  Pt2       1.0  7.999999934131639e-10  6.500000158856705e-10  0.9996125830169695  1.0000
  Se  Se1       1.0  0.0021358297966851316  0.006666667257994074  0.9996125830169695  1.0000
  Se  Se2       1.0  0.0021358297966851316  0.0016666673830825634  0.9994239406210966  1.0000
  Se  Se3       1.0  0.00786417167447644  0.0033333339132890594  0.9996125830169695  1.0000
  Se  Se4       1.0  0.00786417167447644  0.008333333788200569  0.9994239406210966  1.0000
  Pt  Pt3       1.0  8.999999655255925e-10  0.005000001296371623  0.9997965369670088  1.0000
  Pt  Pt4       1.0  0.009999999200850504  0.009999999181238976  0.9999694426165857  1.0000
  Se  Se5       1.0  0.0016982439874026142  0.006700280240974834  0.0  1.0000
  Se  Se6       1.0  0.0021962615420919496  0.0017482333229478046  0.9997965238882275  1.0000
  Se  Se7       1.0  0.008301756272926388  0.003299720646016277  0.0  1.0000
  Se  Se8       1.0  0.007803739020945195  0.008251768132627351  0.9997965238882275  1.0000
