data_image0
_chemical_formula_structural       COPd16Sn32
_chemical_formula_sum              "C1 O1 Pd16 Sn32"
_cell_length_a       13.34927213252748
_cell_length_b       9.40428352355957
_cell_length_c       105.20639038085938
_cell_angle_alpha    90.0
_cell_angle_beta     90.16116413128923
_cell_angle_gamma    90.0

_space_group_name_H-M_alt    "P 1"
_space_group_IT_number       1

loop_
  _space_group_symop_operation_xyz
  'x, y, z'

loop_
  _atom_site_type_symbol
  _atom_site_label
  _atom_site_symmetry_multiplicity
  _atom_site_fract_x
  _atom_site_fract_y
  _atom_site_fract_z
  _atom_site_occupancy
  C   C1        1.0  0.0023458391868368673  0.0012500000316901573  0.0001503151531308174  1.0000
  O   O1        1.0  0.0023458391868368673  0.0012500000316901573  0.0002643768966737104  1.0000
  Pd  Pd1       1.0  0.0018451721919489322  0.002506241637918201  0.9998468250336182  1.0000
  Pd  Pd2       1.0  0.0005951721835770037  0.007506241566615347  0.9994285235911632  1.0000
  Pd  Pd3       1.0  0.005595172426362928  6.241600069507368e-06  0.9994285235177754  1.0000
  Pd  Pd4       1.0  0.006845172225436646  0.0050062415032350325  0.9998468249601558  1.0000
  Pd  Pd5       1.0  0.004801308218524353  6.241600069507368e-06  0.9999445334849498  1.0000
  Pd  Pd6       1.0  0.0035513081403863544  0.0050062415032350325  0.9995262320424699  1.0000
  Pd  Pd7       1.0  0.009801307972947785  0.007506241566615347  0.9999445334113878  1.0000
  Pd  Pd8       1.0  0.008551308173874068  0.002506241637918201  0.9995262319690075  1.0000
  Pd  Pd9       1.0  0.0035513081403863544  6.241600069507368e-06  0.9995262320424699  1.0000
  Pd  Pd10      1.0  0.004801308218524353  0.0050062415032350325  0.9999445334849498  1.0000
  Pd  Pd11      1.0  0.009801307972947785  0.002506241637918201  0.9999445334113878  1.0000
  Pd  Pd12      1.0  0.008551308173874068  0.007506241566615347  0.9995262319690075  1.0000
  Pd  Pd13      1.0  0.0018451721919489322  0.007506241566615347  0.9998468250336182  1.0000
  Pd  Pd14      1.0  0.0005951721835770037  0.002506241637918201  0.9994285235911632  1.0000
  Pd  Pd15      1.0  0.006845172225436646  6.241600069507368e-06  0.9998468249601558  1.0000
  Pd  Pd16      1.0  0.005595172426362928  0.0050062415032350325  0.9994285235177754  1.0000
  Sn  Sn1       1.0  0.003948240244305642  0.009092162018895244  0.9992682270588827  1.0000
  Sn  Sn2       1.0  0.005198240322443641  0.00409216228826158  0.9996865285013626  1.0000
  Sn  Sn3       1.0  0.0010517599984802828  6.241600069507368e-06  0.9999721515808869  1.0000
  Sn  Sn4       1.0  0.009801760057083782  0.0050062415032350325  0.999553849991507  1.0000
  Sn  Sn5       1.0  0.009344720297576646  6.241600069507368e-06  0.9994009057049887  1.0000
  Sn  Sn6       1.0  0.0005947202389731478  0.0050062415032350325  0.9998192070110938  1.0000
  Sn  Sn7       1.0  0.005198240322443641  0.0009203209875748217  0.9996865285013626  1.0000
  Sn  Sn8       1.0  0.003948240244305642  0.005920321114335451  0.9992682270588827  1.0000
  Sn  Sn9       1.0  0.008948240277793356  0.003420321050955136  0.9992682269854203  1.0000
  Sn  Sn10      1.0  0.0001982400622161983  0.008420321177715765  0.9996865285747442  1.0000
  Sn  Sn11      1.0  0.005594720342226932  0.007506241566615347  0.9998192069376564  1.0000
  Sn  Sn12      1.0  0.004344720264088933  0.002506241637918201  0.9994009057784512  1.0000
  Sn  Sn13      1.0  0.006051760101734067  0.002506241637918201  0.9999721515074493  1.0000
  Sn  Sn14      1.0  0.0048017603026603494  0.007506241566615347  0.999553850065069  1.0000
  Sn  Sn15      1.0  0.008948240277793356  0.006592162351641895  0.9992682269854203  1.0000
  Sn  Sn16      1.0  0.0001982400622161983  0.0015921622248812658  0.9996865285747442  1.0000
  Sn  Sn17      1.0  0.0036326193791452878  0.002493758488842428  0.9999992104881127  1.0000
  Sn  Sn18      1.0  0.002382619301007289  0.007493758021412608  0.9995809090456328  1.0000
  Sn  Sn19      1.0  0.00801386106481571  0.007493758021412608  0.9997921485235426  1.0000
  Sn  Sn20      1.0  0.006763861265741994  0.002493758488842428  0.9993738467978874  1.0000
  Sn  Sn21      1.0  0.006757619155893862  0.007518725111818086  0.9993717582508805  1.0000
  Sn  Sn22      1.0  0.008007619513096143  0.002518724786993974  0.99979005969346  1.0000
  Sn  Sn23      1.0  0.003638860930864856  0.007518725111818086  1.2987516456055068e-06  1.0000
  Sn  Sn24      1.0  0.002388860852726857  0.002518724786993974  0.9995829973091657  1.0000
  Sn  Sn25      1.0  0.0017638609531899986  1.8724799434836626e-05  0.9993738468712503  1.0000
  Sn  Sn26      1.0  0.0030138610313279975  0.005018724652310806  0.9997921480304555  1.0000
  Sn  Sn27      1.0  0.008632619691697284  1.8724799434836626e-05  0.9999992104147498  1.0000
  Sn  Sn28      1.0  0.007382619334495003  0.005018724652310806  0.9995809089721703  1.0000
  Sn  Sn29      1.0  0.007388860886214571  0.009993758084792923  0.9995829978022529  1.0000
  Sn  Sn30      1.0  0.008638861243416852  0.004993758354159259  1.2986782827498132e-06  1.0000
  Sn  Sn31      1.0  0.0030076192005441477  0.009993758084792923  0.9997900597668229  1.0000
  Sn  Sn32      1.0  0.0017576192619382896  0.004993758354159259  0.999371758041118  1.0000
