data_image0
_chemical_formula_structural       HCr6Si2Cr6Si2
_chemical_formula_sum              "H1 Cr12 Si4"
_cell_length_a       4.528215408325195
_cell_length_b       4.528215408325195
_cell_length_c       101.697509765625
_cell_angle_alpha    90.0
_cell_angle_beta     90.0
_cell_angle_gamma    90.0

_space_group_name_H-M_alt    "P 1"
_space_group_IT_number       1

loop_
  _space_group_symop_operation_xyz
  'x, y, z'

loop_
  _atom_site_type_symbol
  _atom_site_label
  _atom_site_symmetry_multiplicity
  _atom_site_fract_x
  _atom_site_fract_y
  _atom_site_fract_z
  _atom_site_occupancy
  H   H1        1.0  0.0050000058904173346  0.00999999779520692  0.00012114808826097759  1.0000
  Cr  Cr1       1.0  0.00500000054297143  0.002500002739537671  0.9995736935668863  1.0000
  Cr  Cr2       1.0  0.00500000054297143  0.007500002665496112  0.9995736935668863  1.0000
  Cr  Cr3       1.0  0.007500001020128141  2.65000002707733e-09  0.9993510618368566  1.0000
  Cr  Cr4       1.0  0.0025000004771567113  2.65000002707733e-09  0.9993510618368566  1.0000
  Cr  Cr5       1.0  3.500000132908881e-10  0.005000003011023386  0.9994623778483958  1.0000
  Cr  Cr6       1.0  3.500000132908881e-10  0.005000003011023386  0.9992397461183661  1.0000
  Si  Si1       1.0  0.00500000054297143  0.005000003011023386  0.9993510618368566  1.0000
  Si  Si2       1.0  3.500000132908881e-10  2.65000002707733e-09  0.9995736935668863  1.0000
  Cr  Cr7       1.0  0.0050000058904173346  0.0022497696254489617  0.0  1.0000
  Cr  Cr8       1.0  0.0050000058904173346  0.007750225290364008  0.9999999988278052  1.0000
  Cr  Cr9       1.0  0.007535058052794145  1.56500012072399e-08  0.9997928221928317  1.0000
  Cr  Cr10      1.0  0.0024649432388197112  1.604999984942746e-08  0.9997928216067343  1.0000
  Cr  Cr11      1.0  0.009999996149838949  0.0050000021883394  0.9999187299779755  1.0000
  Cr  Cr12      1.0  3.500000132908881e-10  0.005000003011023386  0.9996850095784255  1.0000
  Si  Si3       1.0  0.00499999437284154  0.005000003833707372  0.9997929581674255  1.0000
  Si  Si4       1.0  0.010000000263258875  2.9050002010305763e-08  2.2249429019236447e-05  1.0000
