data_image0
_chemical_formula_structural       COCa12
_chemical_formula_sum              "C1 O1 Ca12"
_cell_length_a       7.660371982373865
_cell_length_b       9.489602286938524
_cell_length_c       100.61170196533203
_cell_angle_alpha    93.84253076551634
_cell_angle_beta     90.992338297214
_cell_angle_gamma    105.53325354174041

_space_group_name_H-M_alt    "P 1"
_space_group_IT_number       1

loop_
  _space_group_symop_operation_xyz
  'x, y, z'

loop_
  _atom_site_type_symbol
  _atom_site_label
  _atom_site_symmetry_multiplicity
  _atom_site_fract_x
  _atom_site_fract_y
  _atom_site_fract_z
  _atom_site_occupancy
  C   C1        1.0  0.007365776716128837  0.0034748328616913005  0.0001831242418043064  1.0000
  O   O1        1.0  0.007365776716128837  0.0034748328616913005  0.0003023943115839146  1.0000
  Ca  Ca1       1.0  0.0066994668176515405  0.00808880985260293  0.9994036818179326  1.0000
  Ca  Ca2       1.0  0.002949466922370596  0.004755476955087406  0.9995304551273038  1.0000
  Ca  Ca3       1.0  0.009199467007641356  0.0014221438532822832  0.999657228405737  1.0000
  Ca  Ca4       1.0  0.0019078002283665454  0.008644365607908315  0.9995093262502489  1.0000
  Ca  Ca5       1.0  0.00815780050331848  0.00531103271039279  0.9996360992340122  1.0000
  Ca  Ca6       1.0  0.005657800447546028  0.00197769940429807  0.9993825527870323  1.0000
  Ca  Ca7       1.0  0.005444177556296922  0.008034273518733715  0.9997669672664072  1.0000
  Ca  Ca8       1.0  0.0016190553662119428  0.004699089757462159  0.9999014527600923  1.0000
  Ca  Ca9       1.0  0.007639913130342319  0.0012655330982815354  1.8073193984126306e-05  1.0000
  Ca  Ca10      1.0  0.0008005330628969214  0.00873446630927863  0.9998845194796135  1.0000
  Ca  Ca11      1.0  0.006919345076873062  0.0054015391309043285  2.8624858016997824e-06  1.0000
  Ca  Ca12      1.0  0.004438289347120627  0.0020450197726181595  0.9997521228106246  1.0000
