data_image0
_chemical_formula_structural       COCa6Ge12Ca6Ge12
_chemical_formula_sum              "C1 O1 Ca12 Ge24"
_cell_length_a       10.312031745910645
_cell_length_b       10.844448841626065
_cell_length_c       98.69171142578125
_cell_angle_alpha    79.10660534197753
_cell_angle_beta     90.0
_cell_angle_gamma    90.0

_space_group_name_H-M_alt    "P 1"
_space_group_IT_number       1

loop_
  _space_group_symop_operation_xyz
  'x, y, z'

loop_
  _atom_site_type_symbol
  _atom_site_label
  _atom_site_symmetry_multiplicity
  _atom_site_fract_x
  _atom_site_fract_y
  _atom_site_fract_z
  _atom_site_occupancy
  C   C1        1.0  0.008262017460500369  0.0007954064207841434  0.9999388359395451  1.0000
  O   O1        1.0  0.008262017460500369  0.0007954064207841434  6.042634000214234e-05  1.0000
  Ca  Ca1       1.0  0.007120790284639278  0.005587911645057797  0.9990332799169108  1.0000
  Ca  Ca2       1.0  0.007120790284639278  0.0022545780785083722  0.999310156610714  1.0000
  Ca  Ca3       1.0  0.007120790284639278  0.008921244511958948  0.9991717182288005  1.0000
  Ca  Ca4       1.0  0.002120790002859072  0.007810133789541322  0.9994024487807703  1.0000
  Ca  Ca5       1.0  0.002120790002859072  0.004476800222991898  0.9992640104834095  1.0000
  Ca  Ca6       1.0  0.002120790002859072  0.0011434670937226438  0.9991255721769682  1.0000
  Ge  Ge1       1.0  0.003984045179881085  0.005587911645057797  0.9990332799169108  1.0000
  Ge  Ge2       1.0  0.003984045179881085  0.0022545780785083722  0.999310156610714  1.0000
  Ge  Ge3       1.0  0.003984045179881085  0.008921244511958948  0.9991717182288005  1.0000
  Ge  Ge4       1.0  0.008984045281032953  0.007810133789541322  0.9994024487807703  1.0000
  Ge  Ge5       1.0  0.008984045281032953  0.004476800222991898  0.9992640104834095  1.0000
  Ge  Ge6       1.0  0.008984045281032953  0.0011434670937226438  0.9991255721769682  1.0000
  Ge  Ge7       1.0  5.128199934677279e-05  0.006699022367475423  0.9992178643561049  1.0000
  Ge  Ge8       1.0  5.128199934677279e-05  0.003365689150750135  0.9990794260514797  1.0000
  Ge  Ge9       1.0  5.128199934677279e-05  3.2355999616872605e-05  0.9993563027366564  1.0000
  Ge  Ge10      1.0  0.005051281931159575  0.006699022367475423  0.9992178643561049  1.0000
  Ge  Ge11      1.0  0.005051281931159575  0.003365689150750135  0.9990794260514797  1.0000
  Ge  Ge12      1.0  0.005051281931159575  3.2355999616872605e-05  0.9993563027366564  1.0000
  Ca  Ca7       1.0  0.007120790284639278  0.005587911645057797  0.9994485949080749  1.0000
  Ca  Ca8       1.0  0.007226272898586685  0.002237922601549749  0.999727213490887  1.0000
  Ca  Ca9       1.0  0.00715825476935108  0.008641301245038095  0.9996116186624724  1.0000
  Ca  Ca10      1.0  0.002210732438428684  0.00783102388767119  0.9998062173331731  1.0000
  Ca  Ca11      1.0  0.002180739283635759  0.004511421618124137  0.9996781333419367  1.0000
  Ca  Ca12      1.0  0.00214065821682873  0.001174141160755665  0.9995433493561592  1.0000
  Ge  Ge13      1.0  0.003984045179881085  0.005587911645057797  0.9994485949080749  1.0000
  Ge  Ge14      1.0  0.004139665885203934  0.0023310408891242195  0.9997395662049363  1.0000
  Ge  Ge15      1.0  0.004132625353869698  0.00893364157970505  0.9995878970145986  1.0000
  Ge  Ge16      1.0  0.009266614471916958  0.007677467183697412  0.9998513985470229  1.0000
  Ge  Ge17      1.0  0.009084051243791124  0.004428778464490332  0.9996865587460898  1.0000
  Ge  Ge18      1.0  0.009052916698534322  0.0011078879675609477  0.9995404265552696  1.0000
  Ge  Ge19      1.0  0.009948717649782682  0.006667612357915429  0.999638955795275  1.0000
  Ge  Ge20      1.0  5.128199934677279e-05  0.003365689150750135  0.9994947410426438  1.0000
  Ge  Ge21      1.0  0.00929776202241405  0.009967644065975154  0.9997930143153616  1.0000
  Ge  Ge22      1.0  0.004695613174652909  0.0065590472357736325  0.999659752638551  1.0000
  Ge  Ge23      1.0  0.005051281931159575  0.003365689150750135  0.9994947410426438  1.0000
  Ge  Ge24      1.0  0.00412550715235039  3.942889978787364e-05  0.9997954484883878  1.0000
