data_image0
_chemical_formula_structural       COGe12Mo6
_chemical_formula_sum              "C1 O1 Ge12 Mo6"
_cell_length_a       4.788013788375902
_cell_length_b       6.7442185461812265
_cell_length_c       101.15156555175781
_cell_angle_alpha    91.63802680322284
_cell_angle_beta     94.1962461746191
_cell_angle_gamma    100.71821087422958

_space_group_name_H-M_alt    "P 1"
_space_group_IT_number       1

loop_
  _space_group_symop_operation_xyz
  'x, y, z'

loop_
  _atom_site_type_symbol
  _atom_site_label
  _atom_site_symmetry_multiplicity
  _atom_site_fract_x
  _atom_site_fract_y
  _atom_site_fract_z
  _atom_site_occupancy
  C   C1        1.0  0.00305864876598435  0.008868408995737471  0.000147974766975751  1.0000
  O   O1        1.0  0.00305864876598435  0.008868408995737471  0.000266608860805518  1.0000
  Ge  Ge1       1.0  0.0035420280339593688  0.002561709718082868  0.9998987634591511  1.0000
  Ge  Ge2       1.0  0.009648595306984907  0.008364596480202512  0.9997502819991692  1.0000
  Ge  Ge3       1.0  0.0074480033999246185  0.00708843522339261  3.930699557027319e-05  1.0000
  Ge  Ge4       1.0  0.000351405133764976  0.0021884336449130076  0.9996505440894604  1.0000
  Ge  Ge5       1.0  0.008042041676217873  0.0008133544221404279  0.9999481004786811  1.0000
  Ge  Ge6       1.0  0.004147630482283007  0.00641113400225396  0.9998024206202291  1.0000
  Ge  Ge7       1.0  0.0020855645168325948  0.009746713152159438  0.9994565677790114  1.0000
  Ge  Ge8       1.0  0.008276040544921873  0.005460998670304809  0.9993099155984568  1.0000
  Ge  Ge9       1.0  0.005895088334073039  0.004032427082570315  0.9996032197473185  1.0000
  Ge  Ge10      1.0  0.008922833975696692  0.009331290880213346  0.9992105882205297  1.0000
  Ge  Ge11      1.0  0.0065418814497127985  0.007902719573827703  0.9995038920742056  1.0000
  Ge  Ge12      1.0  0.002732357575319122  0.003617005091973075  0.9993572402357601  1.0000
  Mo  Mo1       1.0  0.005028008649082879  0.00025328739928431334  0.9997002080500148  1.0000
  Mo  Mo2       1.0  0.0027634798417767873  0.008755758603296786  0.9999761219799015  1.0000
  Mo  Mo3       1.0  0.0087604958791748  0.004525896370241477  0.9998403010011119  1.0000
  Mo  Mo4       1.0  0.003599437260309282  0.007396144775259077  0.9992602519330637  1.0000
  Mo  Mo5       1.0  0.0012184848074631733  0.005967573468873436  0.9995535560816233  1.0000
  Mo  Mo6       1.0  0.007408960822465153  0.001681858846344381  0.9994069039007554  1.0000
