data_image0
_chemical_formula_structural       COCa3Al3Si3Ca3Al3Si3
_chemical_formula_sum              "C1 O1 Ca6 Al6 Si6"
_cell_length_a       6.124330510307678
_cell_length_b       7.345800399780273
_cell_length_c       106.74597930908203
_cell_angle_alpha    90.0
_cell_angle_beta     106.29991386959708
_cell_angle_gamma    53.149957929274564

_space_group_name_H-M_alt    "P 1"
_space_group_IT_number       1

loop_
  _space_group_symop_operation_xyz
  'x, y, z'

loop_
  _atom_site_type_symbol
  _atom_site_label
  _atom_site_symmetry_multiplicity
  _atom_site_fract_x
  _atom_site_fract_y
  _atom_site_fract_z
  _atom_site_occupancy
  C   C1        1.0  0.00996050315132424  0.008331863490880087  0.00021186010940396367  1.0000
  O   O1        1.0  0.00996050315132424  0.008331863490880087  0.00032427619094371426  1.0000
  Ca  Ca1       1.0  0.0004595962579135066  0.00957971863674535  7.400690594537768e-06  1.0000
  Ca  Ca2       1.0  0.0033728292810054853  0.0037536144469647852  0.9995933950821572  1.0000
  Ca  Ca3       1.0  0.006706162541284472  0.0070869476139725  0.9997846386192478  1.0000
  Al  Al1       1.0  3.949614755696135e-05  0.008753613873699198  0.9996890167540012  1.0000
  Al  Al2       1.0  0.002742039902621738  0.002175897627490138  0.9999174992175273  1.0000
  Al  Al3       1.0  0.00755162455203724  0.004853673286055633  4.325074578610001e-05  1.0000
  Si  Si1       1.0  3.949614755696135e-05  0.00208694751976392  0.9996890167540012  1.0000
  Si  Si2       1.0  0.0033143117348060466  0.00525435367949849  0.9998799070941021  1.0000
  Si  Si3       1.0  0.0068140086144646405  0.008407708248738823  6.978685720259597e-05  1.0000
  Ca  Ca4       1.0  3.949614755696135e-05  0.00042028083619285387  0.9994021521054873  1.0000
  Ca  Ca5       1.0  0.0033728292810054853  0.0037536144469647852  0.9990196657851294  1.0000
  Ca  Ca6       1.0  0.006706162541284472  0.0070869476139725  0.9992109090430307  1.0000
  Al  Al4       1.0  3.949614755696135e-05  0.008753613873699198  0.9991152874569733  1.0000
  Al  Al5       1.0  0.0033728292810054853  0.002086947509827729  0.9993065307128325  1.0000
  Al  Al6       1.0  0.006706162541284472  0.005420280676835444  0.9994977734123555  1.0000
  Si  Si4       1.0  3.949614755696135e-05  0.00208694751976392  0.9991152874569733  1.0000
  Si  Si5       1.0  0.0033728292810054853  0.005420280876969862  0.9993065307128325  1.0000
  Si  Si6       1.0  0.006706162541284472  0.008753614551109557  0.9994977734123555  1.0000
