data_image0
_chemical_formula_structural       HAs8Pd40Sb8
_chemical_formula_sum              "H1 As8 Pd40 Sb8"
_cell_length_a       8.838654518127441
_cell_length_b       8.838654518127441
_cell_length_c       107.49923706054688
_cell_angle_alpha    90.0
_cell_angle_beta     90.0
_cell_angle_gamma    90.0

_space_group_name_H-M_alt    "P 1"
_space_group_IT_number       1

loop_
  _space_group_symop_operation_xyz
  'x, y, z'

loop_
  _atom_site_type_symbol
  _atom_site_label
  _atom_site_symmetry_multiplicity
  _atom_site_fract_x
  _atom_site_fract_y
  _atom_site_fract_z
  _atom_site_occupancy
  H   H1        1.0  0.00707249414544733  0.005000101457962726  3.192613771048407e-05  1.0000
  As  As1       1.0  0.009377180553821692  0.009999725803870759  0.9998820024809902  1.0000
  As  As2       1.0  0.007063870302911059  0.0025002739010952847  0.9995858833952325  1.0000
  As  As3       1.0  0.009563870454642808  0.005000273842088494  0.9992951897568086  1.0000
  As  As4       1.0  0.007063870302911059  0.007500273993820242  0.9995858833952325  1.0000
  As  As5       1.0  0.004563870151179311  0.005000273842088494  0.9992951897568086  1.0000
  As  As6       1.0  0.002063870210186102  0.007500273993820242  0.999004495841152  1.0000
  As  As7       1.0  0.004750171450132558  3.362500104110107e-07  0.9998819209745254  1.0000
  As  As8       1.0  0.002063870210186102  0.0025002739010952847  0.999004495841152  1.0000
  Pd  Pd1       1.0  0.007063870302911059  2.739499921826091e-07  0.9994821639236728  1.0000
  Pd  Pd2       1.0  0.00920587035165404  0.007142273890831475  0.9994405368532534  1.0000
  Pd  Pd3       1.0  7.863515006246358e-05  0.007804693401522076  0.0  1.0000
  Pd  Pd4       1.0  0.007063870302911059  0.005000273842088494  0.9991914702852491  1.0000
  Pd  Pd5       1.0  0.00920587035165404  0.0028582742148225925  0.9994405368532534  1.0000
  Pd  Pd6       1.0  0.004921870675645158  0.007142273890831475  0.9994405368532534  1.0000
  Pd  Pd7       1.0  0.004921870675645158  0.0021422735873679773  0.9997312304916771  1.0000
  Pd  Pd8       1.0  0.004921870675645158  0.00785827409680901  0.9997312304916771  1.0000
  Pd  Pd9       1.0  0.004205870048190543  0.007142273890831475  0.9991498426603639  1.0000
  Pd  Pd10      1.0  0.00920587035165404  0.00785827409680901  0.9997312304916771  1.0000
  Pd  Pd11      1.0  0.007063870302911059  0.005000273842088494  0.999689602866792  1.0000
  Pd  Pd12      1.0  0.007062438545269902  4.552499891547625e-07  6.2488289683424e-07  1.0000
  Pd  Pd13      1.0  0.0038509833963925985  2.739499921826091e-07  0.9995444370806464  1.0000
  Pd  Pd14      1.0  0.007063870302911059  0.008213161170084034  0.9992537434422227  1.0000
  Pd  Pd15      1.0  0.008850983278379016  2.739499921826091e-07  0.9990459421557379  1.0000
  Pd  Pd16      1.0  0.0020679570626934546  0.006609182936266407  0.9998264062005416  1.0000
  Pd  Pd17      1.0  0.005276756905966022  0.005000273842088494  0.9989630495265661  1.0000
  Pd  Pd18      1.0  0.002063870210186102  0.008213161170084034  0.9993366360713946  1.0000
  Pd  Pd19      1.0  0.007072744502832919  0.00682212495849968  0.9999173103052915  1.0000
  Pd  Pd20      1.0  0.0002767570503219222  0.005000273842088494  0.9996273297098184  1.0000
  Pd  Pd21      1.0  0.002063870210186102  0.005000273842088494  0.9989007763695925  1.0000
  Pd  Pd22      1.0  0.004064759943244504  0.0022014597170819253  0.9999999445534253  1.0000
  Pd  Pd23      1.0  0.004921870675645158  0.0028582742148225925  0.9994405368532534  1.0000
  Pd  Pd24      1.0  0.002062804083911946  3.841499904840775e-07  0.9998007471891691  1.0000
  Pd  Pd25      1.0  0.004064885964891458  0.007799294280125779  0.9999999345730418  1.0000
  Pd  Pd26      1.0  7.812945000769651e-05  0.0021950589554047308  0.9999999833660276  1.0000
  Pd  Pd27      1.0  0.009921870557631576  0.007142273890831475  0.9991498426603639  1.0000
  Pd  Pd28      1.0  0.009921870557631576  0.0028582742148225925  0.9991498426603639  1.0000
  Pd  Pd29      1.0  0.00920587035165404  0.0021422735873679773  0.9997312304916771  1.0000
  Pd  Pd30      1.0  0.004205870048190543  0.0028582742148225925  0.9991498426603639  1.0000
  Pd  Pd31      1.0  0.002063870210186102  2.739499921826091e-07  0.9991082153127115  1.0000
  Pd  Pd32      1.0  0.002063870210186102  0.005000273842088494  0.9993989092283682  1.0000
  Pd  Pd33      1.0  0.008850983278379016  0.005000273842088494  0.9989630495265661  1.0000
  Pd  Pd34      1.0  0.0020679269270822264  0.0033912416766031855  0.9998264222800484  1.0000
  Pd  Pd35      1.0  0.0038509833963925985  0.005000273842088494  0.9996273297098184  1.0000
  Pd  Pd36      1.0  0.007063870302911059  0.001787387146308573  0.9992537434422227  1.0000
  Pd  Pd37      1.0  0.0002767570503219222  2.739499921826091e-07  0.9995444370806464  1.0000
  Pd  Pd38      1.0  0.007072243788061741  0.0031780777466872308  0.9999173219490722  1.0000
  Pd  Pd39      1.0  0.002063870210186102  0.001787387146308573  0.9993366360713946  1.0000
  Pd  Pd40      1.0  0.005276756905966022  2.739499921826091e-07  0.9990459421557379  1.0000
  Sb  Sb1       1.0  0.009563870454642808  2.739499921826091e-07  0.9992951897568086  1.0000
  Sb  Sb2       1.0  0.002063870210186102  0.007500273993820242  0.9995858833952325  1.0000
  Sb  Sb3       1.0  0.004563870151179311  2.739499921826091e-07  0.9992951897568086  1.0000
  Sb  Sb4       1.0  0.002063870210186102  0.0025002739010952847  0.9995858833952325  1.0000
  Sb  Sb5       1.0  0.004645832270087152  0.005000270470271853  0.9998860073870807  1.0000
  Sb  Sb6       1.0  0.007063870302911059  0.0025002739010952847  0.999004495841152  1.0000
  Sb  Sb7       1.0  0.009496197251705087  0.00499954005049201  0.9998863062441182  1.0000
  Sb  Sb8       1.0  0.007063870302911059  0.007500273993820242  0.999004495841152  1.0000
