data_image0
_chemical_formula_structural       COGa6Mn12V6
_chemical_formula_sum              "C1 O1 Ga6 Mn12 V6"
_cell_length_a       5.808433532714844
_cell_length_b       7.113849327011699
_cell_length_c       101.27937316894531
_cell_angle_alpha    94.34775332871432
_cell_angle_beta     90.0
_cell_angle_gamma    114.09484202262884

_space_group_name_H-M_alt    "P 1"
_space_group_IT_number       1

loop_
  _space_group_symop_operation_xyz
  'x, y, z'

loop_
  _atom_site_type_symbol
  _atom_site_label
  _atom_site_symmetry_multiplicity
  _atom_site_fract_x
  _atom_site_fract_y
  _atom_site_fract_z
  _atom_site_occupancy
  C   C1        1.0  0.001018176005611487  0.0023233316600097835  0.00015871210672256937  1.0000
  O   O1        1.0  0.001018176005611487  0.0023233316600097835  0.00027719649246889195  1.0000
  Ga  Ga1       1.0  0.0016203357314354058  0.003529031215708142  0.9997456561318158  1.0000
  Ga  Ga2       1.0  0.00746550892787661  0.0052181677107589145  0.9994945630755037  1.0000
  Ga  Ga3       1.0  0.00577099029602455  0.0018215707501932114  9.699628373425386e-06  1.0000
  Ga  Ga4       1.0  0.004548842240555191  0.009384834530928829  0.999623247505882  1.0000
  Ga  Ga5       1.0  0.0003821757364615401  0.0010515013223168842  0.9993658786474241  1.0000
  Ga  Ga6       1.0  0.008721665436188306  0.007729151190469261  0.999896439781509  1.0000
  Mn  Mn1       1.0  0.003507175748703741  0.0023015013395859996  0.9995589054536999  1.0000
  Mn  Mn2       1.0  0.009340509145122826  0.0039681678373990935  0.9993015365642528  1.0000
  Mn  Mn3       1.0  0.0077066081882279465  0.0006151652474508575  0.9998183306399602  1.0000
  Mn  Mn4       1.0  0.008507175896216279  0.0023015013395859996  0.9995589054536999  1.0000
  Mn  Mn5       1.0  0.0043405089976102885  0.0039681678373990935  0.9993015365642528  1.0000
  Mn  Mn6       1.0  0.0026228295789942732  0.0006157726166281447  0.9998183868406629  1.0000
  Mn  Mn7       1.0  0.006423842103446237  0.008134834369750418  0.9994302209930986  1.0000
  Mn  Mn8       1.0  0.00472157680197359  0.0046257786275697085  0.9999357567596867  1.0000
  Mn  Mn9       1.0  0.0005905090277065814  0.006468167871937325  0.9996875895882871  1.0000
  Mn  Mn10      1.0  0.0014238421162734135  0.008134834369750418  0.9994302209930986  1.0000
  Mn  Mn11      1.0  0.009617824450552637  0.004625863534053443  0.9999356901208513  1.0000
  Mn  Mn12      1.0  0.005590509014879405  0.006468167871937325  0.9996875895882871  1.0000
  V   V1        1.0  0.009548842337961567  0.009384834530928829  0.999623247505882  1.0000
  V   V2        1.0  0.005382175733655595  0.0010515013223168842  0.9993658786474241  1.0000
  V   V3        1.0  0.0036679069429969425  0.007624772627919844  0.9998675062722829  1.0000
  V   V4        1.0  0.0066459904688665845  0.003578390664616502  0.9997464868835083  1.0000
  V   V5        1.0  0.0024655088805763943  0.0052181677107589145  0.9994945630755037  1.0000
  V   V6        1.0  0.0009070450532080171  0.002101069654990522  0.9999871022722926  1.0000
