data_image0
_chemical_formula_structural       HSb12Rh12Sb12Rh12
_chemical_formula_sum              "H1 Sb24 Rh24"
_cell_length_a       14.266250789729513
_cell_length_b       7.867933750152588
_cell_length_c       105.47216796875
_cell_angle_alpha    90.0
_cell_angle_beta     111.4387324236627
_cell_angle_gamma    90.0

_space_group_name_H-M_alt    "P 1"
_space_group_IT_number       1

loop_
  _space_group_symop_operation_xyz
  'x, y, z'

loop_
  _atom_site_type_symbol
  _atom_site_label
  _atom_site_symmetry_multiplicity
  _atom_site_fract_x
  _atom_site_fract_y
  _atom_site_fract_z
  _atom_site_occupancy
  H   H1        1.0  0.004160223261807032  0.0012500000094695517  0.00029618011843764836  1.0000
  Sb  Sb1       1.0  0.0057062897572155305  0.003750000028408655  8.691642727356277e-05  1.0000
  Sb  Sb2       1.0  0.002372956622128148  0.003750000028408655  0.9995263868909763  1.0000
  Sb  Sb3       1.0  0.009039623172839635  0.003750000028408655  0.9998066517826196  1.0000
  Sb  Sb4       1.0  0.0076270433442074455  0.0012500000094695517  0.9994151901055875  1.0000
  Sb  Sb5       1.0  0.00429370992858334  0.0012500000094695517  0.9996954550328024  1.0000
  Sb  Sb6       1.0  0.0009603765830934153  0.0012500000094695517  0.9999757199634848  1.0000
  Sb  Sb7       1.0  0.006316519970049271  0.003750000028408655  0.9996152115384862  1.0000
  Sb  Sb8       1.0  0.0029831868349618888  0.003750000028408655  0.9998954764795706  1.0000
  Sb  Sb9       1.0  0.009649853946746823  0.003750000028408655  0.00017574139895259094  1.0000
  Sb  Sb10      1.0  0.007016813131373705  0.0012500000094695517  0.9998868952769359  1.0000
  Sb  Sb11      1.0  0.0036834797157495993  0.0012500000094695517  0.00016716048671188425  1.0000
  Sb  Sb12      1.0  0.0003501463001254937  0.0012500000094695517  0.9996066303714232  1.0000
  Rh  Rh1       1.0  0.007663945705829318  0.003750000028408655  8.210718080708344e-05  1.0000
  Rh  Rh2       1.0  0.004330612570741936  0.003750000028408655  0.9995215770793877  1.0000
  Rh  Rh3       1.0  0.0009972793655203724  0.003750000028408655  0.9998018422995658  1.0000
  Rh  Rh4       1.0  0.005669387395593657  0.0012500000094695517  0.999419999917176  1.0000
  Rh  Rh5       1.0  0.0023360539799695524  0.0012500000094695517  0.99970026456183  1.0000
  Rh  Rh6       1.0  0.009002720250144317  0.0012500000094695517  0.9999805294396039  1.0000
  Rh  Rh7       1.0  0.008959165801745767  0.003750000028408655  0.9995528082025149  1.0000
  Rh  Rh8       1.0  0.005625832947195107  0.003750000028408655  0.9998330731574686  1.0000
  Rh  Rh9       1.0  0.00229249939130264  0.003750000028408655  0.00011333807774890516  1.0000
  Rh  Rh10      1.0  0.004374167019140487  0.0012500000094695517  0.9999492983164768  1.0000
  Rh  Rh11      1.0  0.001040833884053104  0.0012500000094695517  0.9993887687801795  1.0000
  Rh  Rh12      1.0  0.007707500715301315  0.0012500000094695517  0.9996690336856922  1.0000
  Sb  Sb13      1.0  0.0057062897572155305  0.008750000303025656  8.691642727356277e-05  1.0000
  Sb  Sb14      1.0  0.002372956622128148  0.008750000303025656  0.9995263868909763  1.0000
  Sb  Sb15      1.0  0.009039623172839635  0.008750000303025656  0.9998066517826196  1.0000
  Sb  Sb16      1.0  0.0076270433442074455  0.006250000284086553  0.9994151901055875  1.0000
  Sb  Sb17      1.0  0.00429370992858334  0.006250000284086553  0.9996954550328024  1.0000
  Sb  Sb18      1.0  0.0009603765830934153  0.006250000284086553  0.9999757199634848  1.0000
  Sb  Sb19      1.0  0.006316519970049271  0.008750000303025656  0.9996152115384862  1.0000
  Sb  Sb20      1.0  0.0029831868349618888  0.008750000303025656  0.9998954764795706  1.0000
  Sb  Sb21      1.0  0.009649853946746823  0.008750000303025656  0.00017574139895259094  1.0000
  Sb  Sb22      1.0  0.007016813131373705  0.006250000284086553  0.9998868952769359  1.0000
  Sb  Sb23      1.0  0.0036834797157495993  0.006250000284086553  0.00016716048671188425  1.0000
  Sb  Sb24      1.0  0.0003501463001254937  0.006250000284086553  0.9996066303714232  1.0000
  Rh  Rh13      1.0  0.007663945705829318  0.008750000303025656  8.210718080708344e-05  1.0000
  Rh  Rh14      1.0  0.004330612570741936  0.008750000303025656  0.9995215770793877  1.0000
  Rh  Rh15      1.0  0.0009972793655203724  0.008750000303025656  0.9998018422995658  1.0000
  Rh  Rh16      1.0  0.005669387395593657  0.006250000284086553  0.999419999917176  1.0000
  Rh  Rh17      1.0  0.0023360539799695524  0.006250000284086553  0.99970026456183  1.0000
  Rh  Rh18      1.0  0.009002720250144317  0.006250000284086553  0.9999805294396039  1.0000
  Rh  Rh19      1.0  0.008959165801745767  0.008750000303025656  0.9995528082025149  1.0000
  Rh  Rh20      1.0  0.005625832947195107  0.008750000303025656  0.9998330731574686  1.0000
  Rh  Rh21      1.0  0.00229249939130264  0.008750000303025656  0.00011333807774890516  1.0000
  Rh  Rh22      1.0  0.004374167019140487  0.006250000284086553  0.9999492983164768  1.0000
  Rh  Rh23      1.0  0.001040833884053104  0.006250000284086553  0.9993887687801795  1.0000
  Rh  Rh24      1.0  0.007707500715301315  0.006250000284086553  0.9996690336856922  1.0000
