data_image0
_chemical_formula_structural       HV6Rh18V6Rh18
_chemical_formula_sum              "H1 V12 Rh36"
_cell_length_a       5.439069430304461
_cell_length_b       10.225488742218626
_cell_length_c       111.71090698242188
_cell_angle_alpha    83.61521066655489
_cell_angle_beta     113.02904318539159
_cell_angle_gamma    74.5762073290816

_space_group_name_H-M_alt    "P 1"
_space_group_IT_number       1

loop_
  _space_group_symop_operation_xyz
  'x, y, z'

loop_
  _atom_site_type_symbol
  _atom_site_label
  _atom_site_symmetry_multiplicity
  _atom_site_fract_x
  _atom_site_fract_y
  _atom_site_fract_z
  _atom_site_occupancy
  H   H1        1.0  0.008823160526564067  0.00041168412256676983  1.1585163786861406e-05  1.0000
  V   V1        1.0  0.006359668440100987  0.001368622424270031  0.9990335594221325  1.0000
  V   V2        1.0  0.006359668437644489  0.004701955905638121  0.9992409941580047  1.0000
  V   V3        1.0  0.006359668568985622  0.008035289192223636  0.9994484286316275  1.0000
  V   V4        1.0  0.003026335401588008  0.008590844934770464  0.9990681319610853  1.0000
  V   V5        1.0  0.0030263354065010054  0.0019241779720342836  0.9992755665308789  1.0000
  V   V6        1.0  0.0030263355378421387  0.005257511258619799  0.9988606969629633  1.0000
  Rh  Rh1       1.0  0.0030471026356827446  0.0002540500910878115  0.9988611277926087  1.0000
  Rh  Rh2       1.0  0.003047102666675654  0.003587383523760258  0.9990685627963947  1.0000
  Rh  Rh3       1.0  0.0030471027980167866  0.0069207168103457735  0.9992759972700174  1.0000
  Rh  Rh4       1.0  0.008015952539676272  0.008597766728338882  0.9990672702712048  1.0000
  Rh  Rh5       1.0  0.008015951398973617  0.0019311003499504248  0.9992747048132298  1.0000
  Rh  Rh6       1.0  0.008015951396517116  0.005264433831318515  0.9988598355075637  1.0000
  Rh  Rh7       1.0  0.008015952031097609  0.0002540500910878115  0.9988611279066266  1.0000
  Rh  Rh8       1.0  0.008015951317867758  0.003587383523760258  0.9990685626294565  1.0000
  Rh  Rh9       1.0  0.008015951449208891  0.0069207168103457735  0.9992759971030793  1.0000
  Rh  Rh10      1.0  0.006338901172556842  0.009705417316648327  0.9992405633226954  1.0000
  Rh  Rh11      1.0  0.006338901177469839  0.0030387503539121468  0.9994479978924891  1.0000
  Rh  Rh12      1.0  0.006338901308810972  0.0063720836404976625  0.9990331283245735  1.0000
  Rh  Rh13      1.0  0.0013700522615726868  0.0013617000463538897  0.999034420869457  1.0000
  Rh  Rh14      1.0  0.0013700522068581303  0.004695033332939405  0.9992418558730976  1.0000
  Rh  Rh15      1.0  0.0013700527103106418  0.008028366619524921  0.9994492903538078  1.0000
  Rh  Rh16      1.0  0.0013700517771419788  0.009705417316648327  0.9992405634754583  1.0000
  Rh  Rh17      1.0  0.0013700521541663555  0.0030387503539121468  0.9994479980523396  1.0000
  Rh  Rh18      1.0  0.0013700522855074882  0.0063720836404976625  0.9990331284844239  1.0000
  V   V7        1.0  0.006359668440100987  0.001368622424270031  0.9996558637304516  1.0000
  V   V8        1.0  0.006375219405234899  0.004652579691690786  0.999862290901968  1.0000
  V   V9        1.0  0.006056785077195256  0.008041664815453079  3.3505608717130906e-05  1.0000
  V   V10       1.0  0.003026335401588008  0.008590844934770464  0.9996904360026236  1.0000
  V   V11       1.0  0.0029812576937114205  0.001956327615090385  0.999894342920785  1.0000
  V   V12       1.0  0.0030263355378421387  0.005257511258619799  0.9994830015380632  1.0000
  Rh  Rh19      1.0  0.0030471026356827446  0.0002540500910878115  0.9994834318341471  1.0000
  Rh  Rh20      1.0  0.003047102666675654  0.003587383523760258  0.999690866837933  1.0000
  Rh  Rh21      1.0  0.0030745766430087663  0.006914897486149182  0.9998985023438319  1.0000
  Rh  Rh22      1.0  0.008015952539676272  0.008597766728338882  0.9996895743127432  1.0000
  Rh  Rh23      1.0  0.008057698196300417  0.0018998100876131397  0.9999004323011484  1.0000
  Rh  Rh24      1.0  0.008015951396517116  0.005264433831318515  0.999482139815883  1.0000
  Rh  Rh25      1.0  0.008015952031097609  0.0002540500910878115  0.9994834322149457  1.0000
  Rh  Rh26      1.0  0.008015951317867758  0.003587383523760258  0.9996908666709949  1.0000
  Rh  Rh27      1.0  0.00799615837859412  0.006914839830507122  0.9998986231767503  1.0000
  Rh  Rh28      1.0  0.006365457060437608  0.009745813664344783  0.9998710251527853  1.0000
  Rh  Rh29      1.0  0.006163639516505259  0.003090002713617333  5.070889808187211e-05  1.0000
  Rh  Rh30      1.0  0.006338901308810972  0.0063720836404976625  0.9996554328996734  1.0000
  Rh  Rh31      1.0  0.0013700522615726868  0.0013617000463538897  0.9996567249109953  1.0000
  Rh  Rh32      1.0  0.0013641523423383647  0.004704962569458532  0.9998639950227634  1.0000
  Rh  Rh33      1.0  0.0012641753841886164  0.008069233561921437  6.0761904008993406e-05  1.0000
  Rh  Rh34      1.0  0.0014349672524396314  0.009745950012146953  0.9998710187691593  1.0000
  Rh  Rh35      1.0  0.0011768396395234358  0.003089833447560068  5.063671992378012e-05  1.0000
  Rh  Rh36      1.0  0.0013700522855074882  0.0063720836404976625  0.9996554325259623  1.0000
