data_image0
_chemical_formula_structural       COCu4Fe2Se8Si2
_chemical_formula_sum              "C1 O1 Cu4 Fe2 Se8 Si2"
_cell_length_a       6.778263766286736
_cell_length_b       6.778264045715332
_cell_length_c       101.56080627441406
_cell_angle_alpha    90.0
_cell_angle_beta     90.0
_cell_angle_gamma    108.81419064127579

_space_group_name_H-M_alt    "P 1"
_space_group_IT_number       1

loop_
  _space_group_symop_operation_xyz
  'x, y, z'

loop_
  _atom_site_type_symbol
  _atom_site_label
  _atom_site_symmetry_multiplicity
  _atom_site_fract_x
  _atom_site_fract_y
  _atom_site_fract_z
  _atom_site_occupancy
  C   C1        1.0  0.0072270396649526504  0.0009101746678164231  0.00010633264485780939  1.0000
  O   O1        1.0  0.0072270396649526504  0.0009101746678164231  0.00022448811402203374  1.0000
  Cu  Cu1       1.0  0.0011874796279175085  0.002143607304468263  0.9999037788190278  1.0000
  Cu  Cu2       1.0  0.0055856369352870585  0.007533194248721346  0.9996034558996364  1.0000
  Cu  Cu3       1.0  0.005996067597592396  0.006946153405678805  0.9999035892547562  1.0000
  Cu  Cu4       1.0  0.0005856364795032988  0.0025331943655359343  0.9996034558996364  1.0000
  Fe  Fe1       1.0  0.005372600703197816  0.0027500986287558797  0.9998009686656809  1.0000
  Fe  Fe2       1.0  0.0005856364795032988  0.007533194365535935  0.9994092323378027  1.0000
  Se  Se1       1.0  0.009248208970719922  0.0037220471577048067  0.9994092323378027  1.0000
  Se  Se2       1.0  0.004313288992459681  0.009089825360492718  0.9997915186226438  1.0000
  Se  Se3       1.0  0.004396783932198589  0.008870621958022394  0.9994092323378027  1.0000
  Se  Se4       1.0  0.009030132989549057  0.0038093344642075237  0.9997915843539082  1.0000
  Se  Se5       1.0  0.009348776931397209  0.008770054652021901  0.9996092270459663  1.0000
  Se  Se6       1.0  0.004497571656127878  0.003640762960008157  0.0  1.0000
  Se  Se7       1.0  0.009444385268035874  0.008687776501675284  0.9999911802728381  1.0000
  Se  Se8       1.0  0.004348776838498608  0.0037700543362734354  0.9995976844598633  1.0000
  Si  Si1       1.0  0.0055856369352870585  0.002533194523518128  0.9994092323378027  1.0000
  Si  Si2       1.0  0.000555614954049844  0.00756337718882316  0.9998038807954505  1.0000
