data_image0
_chemical_formula_structural       W40CO
_chemical_formula_sum              "W40 C1 O1"
_cell_length_a       8.998138427734375
_cell_length_b       7.113652875940699
_cell_length_c       103.06127166748047
_cell_angle_alpha    75.03678256244926
_cell_angle_beta     90.0
_cell_angle_gamma    71.56505075465186

_space_group_name_H-M_alt    "P 1"
_space_group_IT_number       1

loop_
  _space_group_symop_operation_xyz
  'x, y, z'

loop_
  _atom_site_type_symbol
  _atom_site_label
  _atom_site_symmetry_multiplicity
  _atom_site_fract_x
  _atom_site_fract_y
  _atom_site_fract_z
  _atom_site_occupancy
  W   W1        1.0  0.004498789919942672  0.004003971475668836  0.9988961708584283  1.0000
  W   W2        1.0  0.0034987899210900024  0.00800397147107952  0.9990031017223059  1.0000
  W   W3        1.0  0.0004987900650505755  3.971450006307213e-06  0.9993238938860959  1.0000
  W   W4        1.0  0.0024987899110888723  0.0020039714779634945  0.9991100325165779  1.0000
  W   W5        1.0  0.0014987899839442808  0.006003971186541861  0.9992169630963965  1.0000
  W   W6        1.0  0.004498789919942672  0.004003971475668836  0.9991634980931022  1.0000
  W   W7        1.0  0.0034987899210900024  0.00800397147107952  0.9992704286678089  1.0000
  W   W8        1.0  0.0004987900650505755  3.971450006307213e-06  0.9990565672297638  1.0000
  W   W9        1.0  0.0024987899110888723  0.0020039714779634945  0.9988427055710749  1.0000
  W   W10       1.0  0.0014987899839442808  0.006003971186541861  0.9989496364400644  1.0000
  W   W11       1.0  0.004498789919942672  0.004003971475668836  0.9994308250386053  1.0000
  W   W12       1.0  0.0034987899210900024  0.00800397147107952  0.999537755613312  1.0000
  W   W13       1.0  0.0005170524831429884  0.009933353065561002  0.9998324580537293  1.0000
  W   W14       1.0  0.0025012087724969037  0.001993798396184214  0.9996539719673397  1.0000
  W   W15       1.0  0.0015117941548520436  0.005948907413024732  0.9997402304828097  1.0000
  W   W16       1.0  0.004501209535934681  0.003994281419511016  0.9996950107796386  1.0000
  W   W17       1.0  0.0035060840089643094  0.007975108108706457  0.9997899244705251  1.0000
  W   W18       1.0  0.0005005840400824727  0.009996028221436238  0.999590764747339  1.0000
  W   W19       1.0  0.0024987899110888723  0.0020039714779634945  0.9993773594620811  1.0000
  W   W20       1.0  0.0014987899839442808  0.006003971186541861  0.9994842906202415  1.0000
  W   W21       1.0  0.009498789522496165  0.004003971475668836  0.9988961708584283  1.0000
  W   W22       1.0  0.008498789523643495  0.00800397147107952  0.9990031017223059  1.0000
  W   W23       1.0  0.005498789926358305  3.971450006307213e-06  0.9993238938860959  1.0000
  W   W24       1.0  0.007498789720645755  0.0020039714779634945  0.9991100325165779  1.0000
  W   W25       1.0  0.006498789793501163  0.006003971186541861  0.9992169630963965  1.0000
  W   W26       1.0  0.009498789522496165  0.004003971475668836  0.9991634980931022  1.0000
  W   W27       1.0  0.008498789523643495  0.00800397147107952  0.9992704286678089  1.0000
  W   W28       1.0  0.005498789926358305  3.971450006307213e-06  0.9990565672297638  1.0000
  W   W29       1.0  0.007498789720645755  0.0020039714779634945  0.9988427055710749  1.0000
  W   W30       1.0  0.006498789793501163  0.006003971186541861  0.9989496364400644  1.0000
  W   W31       1.0  0.009498789522496165  0.004003971475668836  0.9994308250386053  1.0000
  W   W32       1.0  0.008498789523643495  0.00800397147107952  0.999537755613312  1.0000
  W   W33       1.0  0.005517052085696481  0.009933353065561002  0.9998324580537293  1.0000
  W   W34       1.0  0.007501208789057174  0.001993798396184214  0.9996539719673397  1.0000
  W   W35       1.0  0.006511793964408925  0.005948907413024732  0.9997402304828097  1.0000
  W   W36       1.0  0.009501209552494953  0.003994281419511016  0.9996950107796386  1.0000
  W   W37       1.0  0.00850608402552458  0.007975108108706457  0.9997899244705251  1.0000
  W   W38       1.0  0.005500583435632577  0.009996028221436238  0.999590764747339  1.0000
  W   W39       1.0  0.007498789720645755  0.0020039714779634945  0.9993773594620811  1.0000
  W   W40       1.0  0.006498789793501163  0.006003971186541861  0.9994842906202415  1.0000
  C   C1        1.0  0.0025012087724969037  0.001993798396184214  0.9998480310993777  1.0000
  O   O1        1.0  0.0025012087724969037  0.001993798396184214  0.9999644669256055  1.0000
