data_image0
_chemical_formula_structural       HGe4Se8Ge4Se8
_chemical_formula_sum              "H1 Ge8 Se16"
_cell_length_a       6.1449055671691895
_cell_length_b       9.7686128616333
_cell_length_c       106.86943054199219
_cell_angle_alpha    90.0
_cell_angle_beta     90.0
_cell_angle_gamma    90.0

_space_group_name_H-M_alt    "P 1"
_space_group_IT_number       1

loop_
  _space_group_symop_operation_xyz
  'x, y, z'

loop_
  _atom_site_type_symbol
  _atom_site_label
  _atom_site_symmetry_multiplicity
  _atom_site_fract_x
  _atom_site_fract_y
  _atom_site_fract_z
  _atom_site_occupancy
  H   H1        1.0  0.005305221064948546  0.0027777820913044864  0.00011528738615993187  1.0000
  Ge  Ge1       1.0  0.00510153639953003  0.003125000038135305  0.9994234643503986  1.0000
  Ge  Ge2       1.0  0.00510153639953003  0.005625000183049463  0.9991359684285448  1.0000
  Ge  Ge3       1.0  0.00010153655071124226  0.008124999755934049  0.9991359684285448  1.0000
  Ge  Ge4       1.0  0.00010153655071124226  0.0006249999885594085  0.9994234643503986  1.0000
  Se  Se1       1.0  0.007440741839266393  0.004375000015254122  0.9992797163894717  1.0000
  Se  Se2       1.0  0.0026015365935269734  0.006874999969491756  0.9992704708438425  1.0000
  Se  Se3       1.0  0.0076015368117735346  0.006874999969491756  0.9990014660132471  1.0000
  Se  Se4       1.0  0.0027623312629138914  0.004375000015254122  0.9989922204676179  1.0000
  Se  Se5       1.0  0.002440741772579944  0.009375000305082438  0.9989922204676179  1.0000
  Se  Se6       1.0  0.0076015368117735346  0.0018750000610164878  0.9989829749219887  1.0000
  Se  Se7       1.0  0.0026015365935269734  0.0018750000610164878  0.9992889619351009  1.0000
  Se  Se8       1.0  0.007762331784280675  0.009375000305082438  0.9992797163894717  1.0000
  Ge  Ge5       1.0  0.005305221064948546  0.0027777820913044864  1.6732000294126256e-09  1.0000
  Ge  Ge6       1.0  0.00510153639953003  0.005625000183049463  0.9997109602722524  1.0000
  Ge  Ge7       1.0  0.00010153655071124226  0.008124999755934049  0.9997109602722524  1.0000
  Ge  Ge8       1.0  0.009898463648969204  0.0009722483482958778  0.0  1.0000
  Se  Se9       1.0  0.007172156709023441  0.004501247323450745  0.9998759852024867  1.0000
  Se  Se10      1.0  0.0026016181328671092  0.006875011410083224  0.9998428251665704  1.0000
  Se  Se11      1.0  0.0076015368117735346  0.006874999969491756  0.9995764578569547  1.0000
  Se  Se12      1.0  0.0027623312629138914  0.004375000015254122  0.9995672123113255  1.0000
  Se  Se13      1.0  0.002440741772579944  0.009375000305082438  0.9995672123113255  1.0000
  Se  Se14      1.0  0.0076015368117735346  0.0018750000610164878  0.9995579667656963  1.0000
  Se  Se15      1.0  0.00260184001687075  0.0018749741290091616  0.9998563780868086  1.0000
  Se  Se16      1.0  0.008031316426978269  0.009248685497396159  0.9998760019344869  1.0000
