data_image0
_chemical_formula_structural       HAu6Rh6Zn12
_chemical_formula_sum              "H1 Au6 Rh6 Zn12"
_cell_length_a       7.648388208508432
_cell_length_b       6.244882583618164
_cell_length_c       103.62972259521484
_cell_angle_alpha    90.0
_cell_angle_beta     85.65224711190287
_cell_angle_gamma    114.09484157459808

_space_group_name_H-M_alt    "P 1"
_space_group_IT_number       1

loop_
  _space_group_symop_operation_xyz
  'x, y, z'

loop_
  _atom_site_type_symbol
  _atom_site_label
  _atom_site_symmetry_multiplicity
  _atom_site_fract_x
  _atom_site_fract_y
  _atom_site_fract_z
  _atom_site_occupancy
  H   H1        1.0  0.0010201606446051696  0.005716773383553909  2.460636156645987e-05  1.0000
  Au  Au1       1.0  0.0035416666059872727  0.0019791666047603326  0.999518516688914  1.0000
  Au  Au2       1.0  0.005476492886992959  0.007949000117693217  0.9997939149118648  1.0000
  Au  Au3       1.0  0.001874999967875615  0.006145833516116102  0.9992480852799591  1.0000
  Au  Au4       1.0  0.009374999571674866  0.004895833124887559  0.9996537329360278  1.0000
  Au  Au5       1.0  0.0008440253852202061  0.0006337178518751813  0.9999278935896413  1.0000
  Au  Au6       1.0  0.0077083329335632085  0.009062499998959899  0.9993833009519035  1.0000
  Rh  Rh1       1.0  0.0035416666059872727  0.006979166835171931  0.999518516688914  1.0000
  Rh  Rh2       1.0  0.005401013431830753  0.002912108022185749  0.9997932806437863  1.0000
  Rh  Rh3       1.0  0.001874999967875615  0.0011458333416296488  0.9992480852799591  1.0000
  Rh  Rh4       1.0  0.009374999571674866  0.009895833318015728  0.9996537329360278  1.0000
  Rh  Rh5       1.0  0.0012268890267058323  0.0058201375746042405  0.999905137342976  1.0000
  Rh  Rh6       1.0  0.0077083329335632085  0.0040624997685483  0.9993833009519035  1.0000
  Zn  Zn1       1.0  0.008154578656051422  0.0019953913868689813  0.9998781628978508  1.0000
  Zn  Zn2       1.0  0.004791666316867807  0.00010416641024080313  0.9993156931166802  1.0000
  Zn  Zn3       1.0  0.006458332954979465  0.005937499866499656  0.9995861251008045  1.0000
  Zn  Zn4       1.0  0.003764444933201496  0.00967042321469558  0.999978937404571  1.0000
  Zn  Zn5       1.0  0.0006249999892918716  0.008020833669992603  0.9994509088536907  1.0000
  Zn  Zn6       1.0  0.002369181965469593  0.003861051512970888  0.9997184172203589  1.0000
  Zn  Zn7       1.0  0.002365949716925059  0.008926223123949072  0.9997185900258082  1.0000
  Zn  Zn8       1.0  0.003768545610955776  0.00451462715464287  0.9999791830648131  1.0000
  Zn  Zn9       1.0  0.0006249999892918716  0.0030208333836558585  0.9994509088536907  1.0000
  Zn  Zn10      1.0  0.004791666316867807  0.005104166547443827  0.9993156931166802  1.0000
  Zn  Zn11      1.0  0.006458332954979465  0.000937499729296632  0.9995861251008045  1.0000
  Zn  Zn12      1.0  0.008155765116673368  0.006579228931601216  0.999878122899613  1.0000
