data_image0
_chemical_formula_structural       COAg6Ca12Ge6
_chemical_formula_sum              "C1 O1 Ag6 Ca12 Ge6"
_cell_length_a       9.106839547544624
_cell_length_b       7.435703277587891
_cell_length_c       110.04248809814453
_cell_angle_alpha    90.0
_cell_angle_beta     85.65224683975522
_cell_angle_gamma    114.09484229007774

_space_group_name_H-M_alt    "P 1"
_space_group_IT_number       1

loop_
  _space_group_symop_operation_xyz
  'x, y, z'

loop_
  _atom_site_type_symbol
  _atom_site_label
  _atom_site_symmetry_multiplicity
  _atom_site_fract_x
  _atom_site_fract_y
  _atom_site_fract_z
  _atom_site_occupancy
  C   C1        1.0  0.003557470194917445  0.0019854320330246603  0.00013452805998096737  1.0000
  O   O1        1.0  0.003557470194917445  0.0019854320330246603  0.00024357652772687822  1.0000
  Ag  Ag1       1.0  0.003541666387876467  0.001979166584677862  0.9994556349429551  1.0000
  Ag  Ag2       1.0  0.005332251080569231  0.00786616998903989  0.9997696079548501  1.0000
  Ag  Ag3       1.0  0.001874999892081213  0.006145832945373675  0.9991523997230154  1.0000
  Ag  Ag4       1.0  0.009374999460406064  0.004895833011348823  0.9996072521911188  1.0000
  Ag  Ag5       1.0  0.001075450620471152  0.0007387738577252032  0.9998997134377908  1.0000
  Ag  Ag6       1.0  0.007708333189441617  0.009062499594053875  0.9993040172405943  1.0000
  Ca  Ca1       1.0  0.008189366793567649  0.00674867288298988  0.999839758092107  1.0000
  Ca  Ca2       1.0  0.004791666540761415  0.005104166520213975  0.999228208346392  1.0000
  Ca  Ca3       1.0  0.006458333261387475  0.0009375001310272035  0.9995314432940955  1.0000
  Ca  Ca4       1.0  0.0022916664598223247  0.00885416622924423  0.9996830609964563  1.0000
  Ca  Ca5       1.0  0.0037283040610098573  0.004632331280831981  0.9999766092587838  1.0000
  Ca  Ca6       1.0  0.000624999964027071  0.0030208332318468023  0.9993798260473423  1.0000
  Ca  Ca7       1.0  0.0022916664598223247  0.003854166479744429  0.9996830609964563  1.0000
  Ca  Ca8       1.0  0.0037338785160228607  0.009512153722253627  0.9999765585777232  1.0000
  Ca  Ca9       1.0  0.000624999964027071  0.008020832981346603  0.9993798260473423  1.0000
  Ca  Ca10      1.0  0.008192750047541823  0.001857513715510577  0.9998398089057594  1.0000
  Ca  Ca11      1.0  0.004791666540761415  0.00010416677071417338  0.999228208346392  1.0000
  Ca  Ca12      1.0  0.006458333261387475  0.005937499880527004  0.9995314432940955  1.0000
  Ge  Ge1       1.0  0.003541666387876467  0.0069791666942716985  0.9994556349429551  1.0000
  Ge  Ge2       1.0  0.005277806502161599  0.0028430851959633406  0.9997730212347177  1.0000
  Ge  Ge3       1.0  0.001874999892081213  0.0011458332428426609  0.9991523997230154  1.0000
  Ge  Ge4       1.0  0.009374999460406064  0.009895832729536098  0.9996072521911188  1.0000
  Ge  Ge5       1.0  0.001076606250815866  0.00574984703628918  0.9999041726432877  1.0000
  Ge  Ge6       1.0  0.007708333189441617  0.00406249993849165  0.9993040172405943  1.0000
