data_image0
_chemical_formula_structural       COBi8
_chemical_formula_sum              "C1 O1 Bi8"
_cell_length_a       4.85660982131958
_cell_length_b       6.73501518110103
_cell_length_c       102.66365814208984
_cell_angle_alpha    90.0
_cell_angle_beta     90.0
_cell_angle_gamma    93.17719971662054

_space_group_name_H-M_alt    "P 1"
_space_group_IT_number       1

loop_
  _space_group_symop_operation_xyz
  'x, y, z'

loop_
  _atom_site_type_symbol
  _atom_site_label
  _atom_site_symmetry_multiplicity
  _atom_site_fract_x
  _atom_site_fract_y
  _atom_site_fract_z
  _atom_site_occupancy
  C   C1        1.0  0.008218562983784788  0.0016092816054742232  0.00019481129830263536  1.0000
  O   O1        1.0  0.008218562983784788  0.0016092816054742232  0.0003116974967024815  1.0000
  Bi  Bi1       1.0  0.005344310838735724  0.008046407888877543  0.9995454831702453  1.0000
  Bi  Bi2       1.0  0.00034431080013072883  0.0030464076672878267  0.9993182246102225  1.0000
  Bi  Bi3       1.0  0.004655689379537193  0.0033907184776219203  0.9995454831702453  1.0000
  Bi  Bi4       1.0  0.009655689145162592  0.00839071842222449  0.9993182246102225  1.0000
  Bi  Bi5       1.0  0.005344310838735724  0.008046407888877543  0.0  1.0000
  Bi  Bi6       1.0  0.00034431080013072883  0.0030464076672878267  0.9997727417302681  1.0000
  Bi  Bi7       1.0  0.004655689379537193  0.0033907184776219203  0.0  1.0000
  Bi  Bi8       1.0  0.009655689145162592  0.00839071842222449  0.9997727417302681  1.0000
