data_image0
_chemical_formula_structural       COCa4Zn8
_chemical_formula_sum              "C1 O1 Ca4 Zn8"
_cell_length_a       5.85446822746347
_cell_length_b       4.658482551574707
_cell_length_c       102.22700500488281
_cell_angle_alpha    90.0
_cell_angle_beta     88.60766406117784
_cell_angle_gamma    113.44427855804301

_space_group_name_H-M_alt    "P 1"
_space_group_IT_number       1

loop_
  _space_group_symop_operation_xyz
  'x, y, z'

loop_
  _atom_site_type_symbol
  _atom_site_label
  _atom_site_symmetry_multiplicity
  _atom_site_fract_x
  _atom_site_fract_y
  _atom_site_fract_z
  _atom_site_occupancy
  C   C1        1.0  0.0020191005870720613  0.0034472607274446277  0.9999971903098617  1.0000
  O   O1        1.0  0.0020191005870720613  0.0034472607274446277  0.0001145763598405871  1.0000
  Ca  Ca1       1.0  0.008003460162171159  0.00144036349640754  0.999097798505877  1.0000
  Ca  Ca2       1.0  0.008003460162171159  0.006440363544388275  0.9996232142955256  1.0000
  Ca  Ca3       1.0  0.0019965399696537417  0.008436903296190573  0.9993076011813383  1.0000
  Ca  Ca4       1.0  0.0021045368249721455  0.0034899788463946695  0.9998276990121104  1.0000
  Zn  Zn1       1.0  0.002255562715204843  0.0035664146209853868  0.9995192801382269  1.0000
  Zn  Zn2       1.0  0.002624372532903939  0.008757576864694713  2.3933269530958353e-05  1.0000
  Zn  Zn3       1.0  0.007744437416620058  0.0013108521236319893  0.999411535338637  1.0000
  Zn  Zn4       1.0  0.007879754982415058  0.006372150908134989  0.9999286810090731  1.0000
  Zn  Zn5       1.0  0.006025327631777832  0.005451297279191612  0.9993212105712892  1.0000
  Zn  Zn6       1.0  0.006276461003985542  0.0005740304549793272  0.9998446224575689  1.0000
  Zn  Zn7       1.0  0.003974672326593253  0.004425969626599322  0.9990841891161675  1.0000
  Zn  Zn8       1.0  0.003974672326593253  0.009425969474660328  0.9996096046142853  1.0000
