data_image0
_chemical_formula_structural       COAl4Ni8V4Al4Ni8V4
_chemical_formula_sum              "C1 O1 Al8 Ni16 V8"
_cell_length_a       8.256424903869629
_cell_length_b       5.838173866271973
_cell_length_c       103.02569580078125
_cell_angle_alpha    90.0
_cell_angle_beta     90.0
_cell_angle_gamma    90.0

_space_group_name_H-M_alt    "P 1"
_space_group_IT_number       1

loop_
  _space_group_symop_operation_xyz
  'x, y, z'

loop_
  _atom_site_type_symbol
  _atom_site_label
  _atom_site_symmetry_multiplicity
  _atom_site_fract_x
  _atom_site_fract_y
  _atom_site_fract_z
  _atom_site_occupancy
  C   C1        1.0  0.0025000000180479586  0.0012188924999150571  0.00015959820502904965  1.0000
  O   O1        1.0  0.0025000000180479586  0.0012188924999150571  0.0002760742377840167  1.0000
  Al  Al1       1.0  1.5000000489269143e-10  0.0012189798387167582  0.999790442997311  1.0000
  Al  Al2       1.0  5.0000000510332415e-11  0.001218840575202813  0.99939330691725  1.0000
  Al  Al3       1.0  0.0025000000180479586  0.006218828327032595  0.0  1.0000
  Al  Al4       1.0  0.0025000000180479586  0.006218840450774931  0.9995936555635072  1.0000
  Ni  Ni1       1.0  0.010000000072191834  0.008781159574748737  0.9999818442093712  1.0000
  Ni  Ni2       1.0  5.0000000510332415e-11  0.008718840986771961  0.9995936555635072  1.0000
  Ni  Ni3       1.0  0.010000000072191834  0.003656475384198587  0.9999818384239558  1.0000
  Ni  Ni4       1.0  5.0000000510332415e-11  0.0037188405528696036  0.9995936555635072  1.0000
  Ni  Ni5       1.0  0.0025000000180479586  0.0037188405528696036  0.99939330691725  1.0000
  Ni  Ni6       1.0  0.0025000000180479586  0.003696535738382974  0.9997994491534743  1.0000
  Ni  Ni7       1.0  0.0025000000180479586  0.008718840986771961  0.99939330691725  1.0000
  Ni  Ni8       1.0  0.0025000000180479586  0.0087410995396102  0.9997994532032651  1.0000
  V   V1        1.0  0.0025000000180479586  0.0012188924999150571  0.9999914798187308  1.0000
  V   V2        1.0  0.0025000000180479586  0.001218840575202813  0.9995936555635072  1.0000
  V   V3        1.0  5.0000000510332415e-11  0.006218840450774931  0.99939330691725  1.0000
  V   V4        1.0  5.0000000510332415e-11  0.006218703899150719  0.9997957152463709  1.0000
  Al  Al5       1.0  0.005000000036095917  0.0012189798387167582  0.999790442997311  1.0000
  Al  Al6       1.0  0.005000000036095917  0.001218840575202813  0.99939330691725  1.0000
  Al  Al7       1.0  0.007500000054143875  0.006218828327032595  0.0  1.0000
  Al  Al8       1.0  0.007500000054143875  0.006218840450774931  0.9995936555635072  1.0000
  Ni  Ni9       1.0  0.005000000036095917  0.008781159574748737  0.9999818442093712  1.0000
  Ni  Ni10      1.0  0.005000000036095917  0.008718840986771961  0.9995936555635072  1.0000
  Ni  Ni11      1.0  0.005000000036095917  0.003656475384198587  0.9999818384239558  1.0000
  Ni  Ni12      1.0  0.005000000036095917  0.0037188405528696036  0.9995936555635072  1.0000
  Ni  Ni13      1.0  0.007500000054143875  0.0037188405528696036  0.99939330691725  1.0000
  Ni  Ni14      1.0  0.007500000054143875  0.003696535738382974  0.9997994491534743  1.0000
  Ni  Ni15      1.0  0.007500000054143875  0.008718840986771961  0.99939330691725  1.0000
  Ni  Ni16      1.0  0.007500000054143875  0.0087410995396102  0.9997994532032651  1.0000
  V   V5        1.0  0.007500000054143875  0.0012188924999150571  0.9999914798187308  1.0000
  V   V6        1.0  0.007500000054143875  0.001218840575202813  0.9995936555635072  1.0000
  V   V7        1.0  0.005000000036095917  0.006218840450774931  0.99939330691725  1.0000
  V   V8        1.0  0.005000000036095917  0.006218703899150719  0.9997957152463709  1.0000
