data_image0
_chemical_formula_structural       COCuNiSb2CuNiSb2CuNiSb2CuNiSb2CuNiSb2CuNiSb2CuNiSb2CuNiSb2
_chemical_formula_sum              "C1 O1 Cu8 Ni8 Sb16"
_cell_length_a       8.28608512878418
_cell_length_b       8.286084994105776
_cell_length_c       101.16819763183594
_cell_angle_alpha    90.0
_cell_angle_beta     90.0
_cell_angle_gamma    120.00000053766355

_space_group_name_H-M_alt    "P 1"
_space_group_IT_number       1

loop_
  _space_group_symop_operation_xyz
  'x, y, z'

loop_
  _atom_site_type_symbol
  _atom_site_label
  _atom_site_symmetry_multiplicity
  _atom_site_fract_x
  _atom_site_fract_y
  _atom_site_fract_z
  _atom_site_occupancy
  C   C1        1.0  0.004999992111129242  0.0008333384762283459  5.220934369748901e-05  1.0000
  O   O1        1.0  0.004999992111129242  0.0008333384762283459  0.00017082393404894213  1.0000
  Cu  Cu1       1.0  7.964413475037281e-09  0.0008333321817193929  0.999361954993274  1.0000
  Ni  Ni1       1.0  7.964413475037281e-09  0.0008333321817193929  0.999105219186674  1.0000
  Sb  Sb1       1.0  0.0016666745947199013  0.004166665386134261  0.9995027504242356  1.0000
  Sb  Sb2       1.0  0.0033333412086827725  0.002499998816372749  0.9992211592677303  1.0000
  Cu  Cu2       1.0  0.009999992021212465  0.0008333384762283459  0.9998810042206379  1.0000
  Ni  Ni2       1.0  7.964413475037281e-09  0.0008333321817193929  0.9996186907998738  1.0000
  Sb  Sb3       1.0  0.0016666677264612622  0.004166667722240677  0.0  1.0000
  Sb  Sb4       1.0  0.0033333187369793066  0.002500019062628351  0.9997496884360164  1.0000
  Cu  Cu3       1.0  7.868361060481159e-09  0.005833331955895773  0.999361954993274  1.0000
  Ni  Ni3       1.0  7.868361060481159e-09  0.005833331955895773  0.999105219186674  1.0000
  Sb  Sb5       1.0  0.001666674697689951  0.009166665614553555  0.9995027504242356  1.0000
  Sb  Sb6       1.0  0.003333341339751815  0.007499999044792043  0.9992211592677303  1.0000
  Cu  Cu4       1.0  0.009999991955588561  0.005833338704647639  0.9998810042206379  1.0000
  Ni  Ni4       1.0  7.868361060481159e-09  0.005833331955895773  0.9996186907998738  1.0000
  Sb  Sb7       1.0  0.001666667868241577  0.009166667691092591  0.0  1.0000
  Sb  Sb8       1.0  0.0033333188680483485  0.0075000192910476444  0.9997496884360164  1.0000
  Cu  Cu5       1.0  0.005000007846397707  0.0008333321817193929  0.999361954993274  1.0000
  Ni  Ni5       1.0  0.005000007846397707  0.0008333321817193929  0.999105219186674  1.0000
  Sb  Sb9       1.0  0.00666667444860514  0.004166665386134261  0.9995027504242356  1.0000
  Sb  Sb10      1.0  0.008333340893974056  0.002499998816372749  0.9992211592677303  1.0000
  Cu  Cu6       1.0  0.004999992111129242  0.0008333384762283459  0.9998810042206379  1.0000
  Ni  Ni6       1.0  0.005000007846397707  0.0008333321817193929  0.9996186907998738  1.0000
  Sb  Sb11      1.0  0.0066666675241485165  0.004166667722240677  0.0  1.0000
  Sb  Sb12      1.0  0.00833331864706253  0.002500019062628351  0.9997496884360164  1.0000
  Cu  Cu7       1.0  0.005000007778444285  0.005833331955895773  0.999361954993274  1.0000
  Ni  Ni7       1.0  0.005000007778444285  0.005833331955895773  0.999105219186674  1.0000
  Sb  Sb13      1.0  0.006666674607773175  0.009166665614553555  0.9995027504242356  1.0000
  Sb  Sb14      1.0  0.008333341277934031  0.007499999044792043  0.9992211592677303  1.0000
  Cu  Cu8       1.0  0.0049999920455053365  0.005833338704647639  0.9998810042206379  1.0000
  Ni  Ni8       1.0  0.005000007778444285  0.005833331955895773  0.9996186907998738  1.0000
  Sb  Sb15      1.0  0.006666667553532861  0.009166667691092591  0.0  1.0000
  Sb  Sb16      1.0  0.008333318581438624  0.0075000192910476444  0.9997496884360164  1.0000
