data_image0
_chemical_formula_structural       HIr16V16
_chemical_formula_sum              "H1 Ir16 V16"
_cell_length_a       5.264407856478652
_cell_length_b       11.288100615247881
_cell_length_c       100.37356567382812
_cell_angle_alpha    90.85243726681938
_cell_angle_beta     92.03713411277432
_cell_angle_gamma    95.48867413485502

_space_group_name_H-M_alt    "P 1"
_space_group_IT_number       1

loop_
  _space_group_symop_operation_xyz
  'x, y, z'

loop_
  _atom_site_type_symbol
  _atom_site_label
  _atom_site_symmetry_multiplicity
  _atom_site_fract_x
  _atom_site_fract_y
  _atom_site_fract_z
  _atom_site_occupancy
  H   H1        1.0  0.006706424766500951  0.0037931687172023097  6.259351351662756e-05  1.0000
  Ir  Ir1       1.0  0.006719190480521548  0.004983898489636061  0.9995732910069518  1.0000
  Ir  Ir2       1.0  0.00671919048615776  0.0006088982425975839  0.9993841626443607  1.0000
  Ir  Ir3       1.0  0.0011089264180160871  0.002529407904702851  0.9994671848822775  1.0000
  Ir  Ir4       1.0  0.0011089263796057996  0.0069044077786966475  0.9996563132441832  1.0000
  Ir  Ir5       1.0  0.003589295976416304  0.006444246388041467  0.9994202742145225  1.0000
  Ir  Ir6       1.0  0.0035892959179658797  0.0008192462421395474  0.9996094025526046  1.0000
  Ir  Ir7       1.0  0.00919955976337002  0.008898737138772313  0.9995263800420464  1.0000
  Ir  Ir8       1.0  0.009199559743329777  0.004523736767385609  0.9993372519761134  1.0000
  Ir  Ir9       1.0  0.006583567166912136  0.0037648421911043077  0.9999397087824848  1.0000
  Ir  Ir10      1.0  0.006655244906943496  0.009401314870221781  0.9997596320851999  1.0000
  Ir  Ir11      1.0  0.0008004401972408014  0.0012496100671719704  0.9998464852475757  1.0000
  Ir  Ir12      1.0  0.001080600871090681  0.005648768563393036  1.600728225536057e-05  1.0000
  Ir  Ir13      1.0  0.0035440129063051195  0.005186668335183334  0.9997946514229731  1.0000
  Ir  Ir14      1.0  0.003646082663154218  0.009707155137309516  0.9999748675346763  1.0000
  Ir  Ir15      1.0  0.008961138621359905  0.007695179603246947  0.9999152551635049  1.0000
  Ir  Ir16      1.0  0.00919956034453366  0.003273736661275122  0.9997155080838521  1.0000
  V   V1        1.0  0.0060909102644308944  0.0028042806551499154  0.9994790676278457  1.0000
  V   V2        1.0  0.006090910147530046  0.007179280363346076  0.9996681956924136  1.0000
  V   V3        1.0  0.0018313344865115175  0.0046678447565799966  0.9995596282596187  1.0000
  V   V4        1.0  0.0018313344549900626  0.0002928447582379725  0.9993704998973745  1.0000
  V   V5        1.0  0.0042175762409372595  0.00424886418273618  0.9993253692314641  1.0000
  V   V6        1.0  0.004217576260977501  0.008623864554122885  0.9995144975943111  1.0000
  V   V7        1.0  0.008477151966251213  0.0011352998093979766  0.9996230652997614  1.0000
  V   V8        1.0  0.008477151990466364  0.0067602997895022604  0.9994339369613381  1.0000
  V   V9        1.0  0.006028672727103448  0.001613667106858948  0.9998778229305932  1.0000
  V   V10       1.0  0.00592352740327313  0.005874496075991747  2.0872433352817802e-05  1.0000
  V   V11       1.0  0.0017068716809725837  0.0034011723717960363  0.9999402939792768  1.0000
  V   V12       1.0  0.0017157721487341723  0.009014873740404853  0.9997549261226722  1.0000
  V   V13       1.0  0.004217576134056532  0.002998864076625693  0.9997036256347966  1.0000
  V   V14       1.0  0.004037572572492001  0.007461687455762538  0.9998897692997875  1.0000
  V   V15       1.0  0.008463818492820567  0.009648912417380253  0.9999965408858462  1.0000
  V   V16       1.0  0.008482528715165322  0.005525214838719699  0.999812712610721  1.0000
