data_image0
_chemical_formula_structural       COGa6Au21
_chemical_formula_sum              "C1 O1 Ga6 Au21"
_cell_length_a       7.882793750050641
_cell_length_b       7.882793426513672
_cell_length_c       106.2780990600586
_cell_angle_alpha    90.0
_cell_angle_beta     90.0
_cell_angle_gamma    119.99999864229397

_space_group_name_H-M_alt    "P 1"
_space_group_IT_number       1

loop_
  _space_group_symop_operation_xyz
  'x, y, z'

loop_
  _atom_site_type_symbol
  _atom_site_label
  _atom_site_symmetry_multiplicity
  _atom_site_fract_x
  _atom_site_fract_y
  _atom_site_fract_z
  _atom_site_occupancy
  C   C1        1.0  0.0034707644911751907  0.003625196799094385  0.0001556327096184567  1.0000
  O   O1        1.0  0.0034707644911751907  0.003625196799094385  0.000268544254187143  1.0000
  Ga  Ga1       1.0  0.0001374312454939849  9.728779898973781e-05  0.9996973176236639  1.0000
  Ga  Ga2       1.0  0.0034707644911751907  0.006763954624081973  0.9992601870175505  1.0000
  Ga  Ga3       1.0  0.0001374312454939849  9.728779898973781e-05  0.0  1.0000
  Ga  Ga4       1.0  0.006804097540747551  0.003430620896773567  0.0  1.0000
  Ga  Ga5       1.0  0.006804097540747551  0.003430620896773567  0.9996973176236639  1.0000
  Ga  Ga6       1.0  0.0034707644911751907  0.006763954624081973  0.9995837538261617  1.0000
  Au  Au1       1.0  0.007078959878259033  0.006763954412837637  0.9995659551167068  1.0000
  Au  Au2       1.0  0.0034707644911751907  0.003625196799094385  0.9999926592101066  1.0000
  Au  Au3       1.0  0.0006971628518234427  0.006763954623525283  0.9994219704218561  1.0000
  Au  Au4       1.0  0.0003320068520133094  0.0067639546579216945  0.9999926592101066  1.0000
  Au  Au5       1.0  0.006609522096231186  0.009902712280030632  0.9997046578527207  1.0000
  Au  Au6       1.0  0.006244365925891622  0.009537556160559372  0.9994219704218561  1.0000
  Au  Au7       1.0  0.0003320068520133094  0.0067639546579216945  0.9997046578527207  1.0000
  Au  Au8       1.0  0.0034707644911751907  0.003990352749551079  0.9994219704218561  1.0000
  Au  Au9       1.0  0.0034707644911751907  0.00037215018791026137  0.9995659551167068  1.0000
  Au  Au10      1.0  0.009862568798502608  0.0031557586319410505  0.9992779854465871  1.0000
  Au  Au11      1.0  0.0034707644911751907  0.0004468745084478971  0.9998486588118319  1.0000
  Au  Au12      1.0  0.006804097540747551  0.003430620896773567  0.9994219704218561  1.0000
  Au  Au13      1.0  0.0034707644911751907  0.00037215018791026137  0.9992779854465871  1.0000
  Au  Au14      1.0  0.0034707644911751907  0.006763954624081973  0.9998486588118319  1.0000
  Au  Au15      1.0  0.006609522096231186  0.009902712280030632  0.9999926592101066  1.0000
  Au  Au16      1.0  0.009787844711956244  0.0030810344874721814  0.9998486588118319  1.0000
  Au  Au17      1.0  0.0034707644911751907  0.003625196799094385  0.9997046578527207  1.0000
  Au  Au18      1.0  0.009862568798502608  0.0031557586319410505  0.9995659551167068  1.0000
  Au  Au19      1.0  0.0071536845104995745  0.006763954627762221  0.9998486588118319  1.0000
  Au  Au20      1.0  0.0001374312454939849  9.728779898973781e-05  0.9994219704218561  1.0000
  Au  Au21      1.0  0.007078959878259033  0.006763954412837637  0.9992779854465871  1.0000
