data_image0
_chemical_formula_structural       COGa5Co5Ga5Co5Ga5Co5Ga5Co5
_chemical_formula_sum              "C1 O1 Ga20 Co20"
_cell_length_a       6.493318577101692
_cell_length_b       8.213470458984375
_cell_length_c       105.20792388916016
_cell_angle_alpha    90.0
_cell_angle_beta     104.9632176735265
_cell_angle_gamma    71.56505129730789

_space_group_name_H-M_alt    "P 1"
_space_group_IT_number       1

loop_
  _space_group_symop_operation_xyz
  'x, y, z'

loop_
  _atom_site_type_symbol
  _atom_site_label
  _atom_site_symmetry_multiplicity
  _atom_site_fract_x
  _atom_site_fract_y
  _atom_site_fract_z
  _atom_site_occupancy
  C   C1        1.0  0.007795275543242787  0.00130118100714947  0.0002029615234745422  1.0000
  O   O1        1.0  0.007795275543242787  0.00130118100714947  0.00031702103791465824  1.0000
  Ga  Ga1       1.0  0.006999999869278396  0.0014999999256405676  0.9997928350500945  1.0000
  Ga  Ga2       1.0  0.0010000000037708155  0.0004999999918003583  0.9996972205236905  1.0000
  Ga  Ga3       1.0  0.0029999998541951336  0.002499999929411383  0.9998884499296571  1.0000
  Ga  Ga4       1.0  0.004999999861736765  0.00449999982774308  7.967877158606176e-05  1.0000
  Ga  Ga5       1.0  0.009000000191054652  0.003499999745413608  0.9999840644635725  1.0000
  Co  Co1       1.0  0.006999999869278396  0.0014999999256405676  3.187133180477403e-05  1.0000
  Co  Co2       1.0  0.0010000000037708155  0.0004999999918003583  0.9999362573719421  1.0000
  Co  Co3       1.0  0.0029999998541951336  0.002499999929411383  0.9996494136479468  1.0000
  Co  Co4       1.0  0.004999999861736765  0.00449999982774308  0.9998406424898758  1.0000
  Co  Co5       1.0  0.009000000191054652  0.003499999745413608  0.9997450281818622  1.0000
  Ga  Ga6       1.0  0.006999999869278396  0.0014999999256405676  0.9993147627699447  1.0000
  Ga  Ga7       1.0  0.0010000000037708155  0.0004999999918003583  0.9992191482435406  1.0000
  Ga  Ga8       1.0  0.0029999998541951336  0.002499999929411383  0.9994103770829659  1.0000
  Ga  Ga9       1.0  0.004999999861736765  0.00449999982774308  0.9996016062081655  1.0000
  Ga  Ga10      1.0  0.009000000191054652  0.003499999745413608  0.9995059916168813  1.0000
  Co  Co6       1.0  0.006999999869278396  0.0014999999256405676  0.999553799051655  1.0000
  Co  Co7       1.0  0.0010000000037708155  0.0004999999918003583  0.9994581845252509  1.0000
  Co  Co8       1.0  0.0029999998541951336  0.002499999929411383  0.9991713408012556  1.0000
  Co  Co9       1.0  0.004999999861736765  0.00449999982774308  0.9993625699264552  1.0000
  Co  Co10      1.0  0.009000000191054652  0.003499999745413608  0.999266955335171  1.0000
  Ga  Ga11      1.0  0.006999999869278396  0.006499999952854085  0.9997928350500945  1.0000
  Ga  Ga12      1.0  0.0010000000037708155  0.005499999792234567  0.9996972205236905  1.0000
  Ga  Ga13      1.0  0.0029999998541951336  0.0074999999566249  0.9998884499296571  1.0000
  Ga  Ga14      1.0  0.004999999861736765  0.009499999628177288  7.967877158606176e-05  1.0000
  Ga  Ga15      1.0  0.009000000191054652  0.008499999545847816  0.9999840644635725  1.0000
  Co  Co11      1.0  0.006999999869278396  0.006499999952854085  3.187133180477403e-05  1.0000
  Co  Co12      1.0  0.0010000000037708155  0.005499999792234567  0.9999362573719421  1.0000
  Co  Co13      1.0  0.0029999998541951336  0.0074999999566249  0.9996494136479468  1.0000
  Co  Co14      1.0  0.004999999861736765  0.009499999628177288  0.9998406424898758  1.0000
  Co  Co15      1.0  0.009000000191054652  0.008499999545847816  0.9997450281818622  1.0000
  Ga  Ga16      1.0  0.006999999869278396  0.006499999952854085  0.9993147627699447  1.0000
  Ga  Ga17      1.0  0.0010000000037708155  0.005499999792234567  0.9992191482435406  1.0000
  Ga  Ga18      1.0  0.0029999998541951336  0.0074999999566249  0.9994103770829659  1.0000
  Ga  Ga19      1.0  0.004999999861736765  0.009499999628177288  0.9996016062081655  1.0000
  Ga  Ga20      1.0  0.009000000191054652  0.008499999545847816  0.9995059916168813  1.0000
  Co  Co16      1.0  0.006999999869278396  0.006499999952854085  0.999553799051655  1.0000
  Co  Co17      1.0  0.0010000000037708155  0.005499999792234567  0.9994581845252509  1.0000
  Co  Co18      1.0  0.0029999998541951336  0.0074999999566249  0.9991713408012556  1.0000
  Co  Co19      1.0  0.004999999861736765  0.009499999628177288  0.9993625699264552  1.0000
  Co  Co20      1.0  0.009000000191054652  0.008499999545847816  0.999266955335171  1.0000
