data_image0
_chemical_formula_structural       HSn6Au18Sn6Au18
_chemical_formula_sum              "H1 Sn12 Au36"
_cell_length_a       5.038249969482422
_cell_length_b       16.100697100421055
_cell_length_c       106.51294708251953
_cell_angle_alpha    79.10660592022202
_cell_angle_beta     90.0
_cell_angle_gamma    90.0

_space_group_name_H-M_alt    "P 1"
_space_group_IT_number       1

loop_
  _space_group_symop_operation_xyz
  'x, y, z'

loop_
  _atom_site_type_symbol
  _atom_site_label
  _atom_site_symmetry_multiplicity
  _atom_site_fract_x
  _atom_site_fract_y
  _atom_site_fract_z
  _atom_site_occupancy
  H   H1        1.0  0.007504281904482842  0.008659649443845781  0.9998601040790357  1.0000
  Sn  Sn1       1.0  0.002508627286596619  0.005555994751663064  0.9988626097258755  1.0000
  Sn  Sn2       1.0  0.002508627286596619  0.0022226614654537766  0.9992435018349632  1.0000
  Sn  Sn3       1.0  0.002508627286596619  0.008889328273492581  0.9990530557757077  1.0000
  Sn  Sn4       1.0  0.0075086273679308  0.007778216785389103  0.9987991277128546  1.0000
  Sn  Sn5       1.0  0.0075086273679308  0.004444883734800045  0.9991800198152114  1.0000
  Sn  Sn6       1.0  0.0075086273679308  0.0011115503307806427  0.9989895737620137  1.0000
  Au  Au1       1.0  0.0075086273679308  0.006120048374906544  0.9989915156775515  1.0000
  Au  Au2       1.0  0.0075086273679308  0.002786715088697256  0.9988010699007883  1.0000
  Au  Au3       1.0  0.0075086273679308  0.009453381425495603  0.9991819617408456  1.0000
  Au  Au4       1.0  0.0075086273679308  0.006120048374906544  0.9992728154036071  1.0000
  Au  Au5       1.0  0.0075086273679308  0.002786715088697256  0.999082369347044  1.0000
  Au  Au6       1.0  0.0075086273679308  0.009453381425495603  0.9988919233012503  1.0000
  Au  Au7       1.0  0.0075086273679308  0.004427887033935647  0.9988948362755806  1.0000
  Au  Au8       1.0  0.0075086273679308  0.0010945539833465885  0.9992757283779374  1.0000
  Au  Au9       1.0  0.0075086273679308  0.007761220555765163  0.9990852823254129  1.0000
  Au  Au10      1.0  0.002508627286596619  0.007214163162145623  0.9992415599268295  1.0000
  Au  Au11      1.0  0.002508627286596619  0.003880829875936336  0.9990511138702663  1.0000
  Au  Au12      1.0  0.002508627286596619  0.0005474965308219911  0.998860667535586  1.0000
  Au  Au13      1.0  0.002508627286596619  0.007214163162145623  0.9989602602007739  1.0000
  Au  Au14      1.0  0.002508627286596619  0.003880829875936336  0.9987698144240107  1.0000
  Au  Au15      1.0  0.002508627286596619  0.0005474965308219911  0.9991507062549813  1.0000
  Au  Au16      1.0  0.002508627286596619  0.008906324031876063  0.9987669011766114  1.0000
  Au  Au17      1.0  0.002508627286596619  0.005572990981287004  0.9991477932789682  1.0000
  Au  Au18      1.0  0.002508627286596619  0.0022396576950777162  0.998957347222405  1.0000
  Sn  Sn7       1.0  0.002508627286596619  0.005555994751663064  0.9994339478915264  1.0000
  Sn  Sn8       1.0  0.002510880428249127  0.0021633141489457637  0.9997941636813164  1.0000
  Sn  Sn9       1.0  0.0025027996925579806  0.009049568879068992  0.9996545921448357  1.0000
  Sn  Sn10      1.0  0.0075086273679308  0.007778216785389103  0.9993704658785055  1.0000
  Sn  Sn11      1.0  0.007479740424594945  0.004702088190879982  0.9997746496637439  1.0000
  Sn  Sn12      1.0  0.0075086273679308  0.0011115503307806427  0.9995609119276646  1.0000
  Au  Au19      1.0  0.0075086273679308  0.006120048374906544  0.9995628544028025  1.0000
  Au  Au20      1.0  0.0075086273679308  0.002786715088697256  0.9993724083462393  1.0000
  Au  Au21      1.0  0.0075043159169583575  0.009651895238646725  0.9997756744536096  1.0000
  Au  Au22      1.0  0.007509592287073149  0.006387662532719168  0.9998175242302879  1.0000
  Au  Au23      1.0  0.007512012348646258  0.003043265463020517  0.9997688079488356  1.0000
  Au  Au24      1.0  0.0075086273679308  0.009453381425495603  0.9994632614669012  1.0000
  Au  Au25      1.0  0.0075086273679308  0.004427887033935647  0.9994661744412315  1.0000
  Au  Au26      1.0  0.007509068051309221  0.001280505586159796  0.9998283800412983  1.0000
  Au  Au27      1.0  0.007504247892007326  0.008081464732967258  0.9997072233946126  1.0000
  Au  Au28      1.0  0.002509448576970078  0.007237818019450996  0.9997924695856779  1.0000
  Au  Au29      1.0  0.0025064820975837917  0.003872225967641388  0.9996288164893341  1.0000
  Au  Au30      1.0  0.002508627286596619  0.0005474965308219911  0.9994320059810369  1.0000
  Au  Au31      1.0  0.002508627286596619  0.007214163162145623  0.9995315989260248  1.0000
  Au  Au32      1.0  0.002508627286596619  0.003880829875936336  0.9993411523098616  1.0000
  Au  Au33      1.0  0.0025060998269350603  0.0003481043549083803  0.9998133390924421  1.0000
  Au  Au34      1.0  0.002508627286596619  0.008906324031876063  0.9993382393422623  1.0000
  Au  Au35      1.0  0.002487987074620461  0.0054932867838238305  0.9997371291898091  1.0000
  Au  Au36      1.0  0.002508627286596619  0.0022396576950777162  0.999528685388056  1.0000
