data_image0
_chemical_formula_structural       HSi4Pd4Si4Pd4Si4Pd4Si4Pd4
_chemical_formula_sum              "H1 Si16 Pd16"
_cell_length_a       6.9846696853637695
_cell_length_b       5.65421724319458
_cell_length_c       107.24236297607422
_cell_angle_alpha    90.0
_cell_angle_beta     90.0
_cell_angle_gamma    90.0

_space_group_name_H-M_alt    "P 1"
_space_group_IT_number       1

loop_
  _space_group_symop_operation_xyz
  'x, y, z'

loop_
  _atom_site_type_symbol
  _atom_site_label
  _atom_site_symmetry_multiplicity
  _atom_site_fract_x
  _atom_site_fract_y
  _atom_site_fract_z
  _atom_site_occupancy
  H   H1        1.0  0.004999999487981702  0.004753579986338895  8.214077167732925e-05  1.0000
  Si  Si1       1.0  0.0012500000053335238  0.006773108831200986  0.9994322371392151  1.0000
  Si  Si2       1.0  0.003749999882662473  0.0032268916036410945  0.9993475758424715  1.0000
  Si  Si3       1.0  0.0012500000053335238  0.0017731084490670364  0.9990581820487696  1.0000
  Si  Si4       1.0  0.003749999882662473  0.008226891985775045  0.9991428430676164  1.0000
  Pd  Pd1       1.0  0.0012500000053335238  0.00504231051669317  0.9992111045555104  1.0000
  Pd  Pd2       1.0  0.003749999882662473  0.0049576899181489106  0.9989899205608754  1.0000
  Pd  Pd3       1.0  0.0012500000053335238  4.2310201473840046e-05  0.9992793143545773  1.0000
  Pd  Pd4       1.0  0.003749999882662473  0.009957689970857041  0.9989217107618086  1.0000
  Si  Si5       1.0  0.001250000272009721  0.006150763502579283  0.0  1.0000
  Si  Si6       1.0  0.003749999082633882  0.003356396799524328  0.9999345119233697  1.0000
  Si  Si7       1.0  0.0012500000053335238  0.0017731084490670364  0.999636970469864  1.0000
  Si  Si8       1.0  0.003749999882662473  0.008226891985775045  0.9997216312108139  1.0000
  Pd  Pd5       1.0  0.0012500000053335238  0.00512004512733146  0.9997768298760763  1.0000
  Pd  Pd6       1.0  0.003749999882662473  0.0049576899181489106  0.9995687084261761  1.0000
  Pd  Pd7       1.0  0.0012500000053335238  7.36012997331656e-05  0.9998611893767646  1.0000
  Pd  Pd8       1.0  0.003749999882662473  0.009957689970857041  0.9995004986271092  1.0000
  Si  Si9       1.0  0.006249999893329521  0.006773108831200986  0.9994322371392151  1.0000
  Si  Si10      1.0  0.008749999637320371  0.0032268916036410945  0.9993475758424715  1.0000
  Si  Si11      1.0  0.006249999893329521  0.0017731084490670364  0.9990581820487696  1.0000
  Si  Si12      1.0  0.008749999637320371  0.008226891985775045  0.9991428430676164  1.0000
  Pd  Pd9       1.0  0.006249999893329521  0.00504231051669317  0.9992111045555104  1.0000
  Pd  Pd10      1.0  0.008749999637320371  0.0049576899181489106  0.9989899205608754  1.0000
  Pd  Pd11      1.0  0.006249999893329521  4.2310201473840046e-05  0.9992793143545773  1.0000
  Pd  Pd12      1.0  0.008749999637320371  0.009957689970857041  0.9989217107618086  1.0000
  Si  Si13      1.0  0.006249999893329521  0.006150763502579283  0.0  1.0000
  Si  Si14      1.0  0.008749999103967978  0.003356396799524328  0.9999345119233697  1.0000
  Si  Si15      1.0  0.006249999893329521  0.0017731084490670364  0.999636970469864  1.0000
  Si  Si16      1.0  0.008749999637320371  0.008226891985775045  0.9997216312108139  1.0000
  Pd  Pd13      1.0  0.006249999893329521  0.00512004512733146  0.9997768298760763  1.0000
  Pd  Pd14      1.0  0.008749999637320371  0.0049576899181489106  0.9995687084261761  1.0000
  Pd  Pd15      1.0  0.006249999893329521  7.36012997331656e-05  0.9998611893767646  1.0000
  Pd  Pd16      1.0  0.008749999637320371  0.009957689970857041  0.9995004986271092  1.0000
