data_image0
_chemical_formula_structural       HRe6Rh18Re6Rh18
_chemical_formula_sum              "H1 Re12 Rh36"
_cell_length_a       9.546957969665527
_cell_length_b       7.031798287035565
_cell_length_c       105.15898895263672
_cell_angle_alpha    85.50641461618598
_cell_angle_beta     90.0
_cell_angle_gamma    47.24679242832682

_space_group_name_H-M_alt    "P 1"
_space_group_IT_number       1

loop_
  _space_group_symop_operation_xyz
  'x, y, z'

loop_
  _atom_site_type_symbol
  _atom_site_label
  _atom_site_symmetry_multiplicity
  _atom_site_fract_x
  _atom_site_fract_y
  _atom_site_fract_z
  _atom_site_occupancy
  H   H1        1.0  0.0069258188403704835  0.0011825513868487377  3.955603003503995e-05  1.0000
  Re  Re1       1.0  0.0074999997879617785  0.008333333091456412  0.9993097432856372  1.0000
  Re  Re2       1.0  0.0008333332639402269  0.0016666666545728207  0.9990868493418119  1.0000
  Re  Re3       1.0  0.004166666292343473  0.005000000145126153  0.9988639550242756  1.0000
  Re  Re4       1.0  0.005833333468880683  0.005000000145126153  0.999198296312299  1.0000
  Re  Re5       1.0  0.009166666184084892  0.008333333091456412  0.9989754022810163  1.0000
  Re  Re6       1.0  0.002499999855166864  0.0016666666545728207  0.9987525080537886  1.0000
  Rh  Rh1       1.0  0.007522920094185583  0.0066437468449574355  0.9990883819922834  1.0000
  Rh  Rh2       1.0  0.0008562532620299682  0.009977079791287695  0.9988654876775983  1.0000
  Rh  Rh3       1.0  0.004189586389767919  0.003310413535811794  0.9993112763088694  1.0000
  Rh  Rh4       1.0  0.009166666794016865  0.003356253445294871  0.9993082106323145  1.0000
  Rh  Rh5       1.0  0.0024999999618612505  0.00668958639162513  0.9990853166010318  1.0000
  Rh  Rh6       1.0  0.0058333331576270854  2.2920000093461243e-05  0.998862422656969  1.0000
  Rh  Rh7       1.0  0.000810413128232551  0.005000000145126153  0.999198296312299  1.0000
  Rh  Rh8       1.0  0.004143747014057907  0.008333333091456412  0.9989754022810163  1.0000
  Rh  Rh9       1.0  0.007477080232499703  0.0016666666545728207  0.9987525080537886  1.0000
  Rh  Rh10      1.0  0.005810413162656879  0.00668958639162513  0.9987509753130084  1.0000
  Rh  Rh11      1.0  0.009143746358422713  2.2920000093461243e-05  0.9991967636615898  1.0000
  Rh  Rh12      1.0  0.002477080057245621  0.003356253445294871  0.9989738696276936  1.0000
  Rh  Rh13      1.0  0.004166666462825596  0.009977079791287695  0.9991998289656217  1.0000
  Rh  Rh14      1.0  0.007499999590563547  0.003310413535811794  0.9989769347374435  1.0000
  Rh  Rh15      1.0  0.0008333333574143386  0.0066437468449574355  0.9987540407042601  1.0000
  Rh  Rh16      1.0  0.0025229198008359893  0.008333333091456412  0.9993097432856372  1.0000
  Rh  Rh17      1.0  0.005856253019277785  0.0016666666545728207  0.9990868493418119  1.0000
  Rh  Rh18      1.0  0.009189586242784554  0.005000000145126153  0.9988639550242756  1.0000
  Re  Re7       1.0  0.007447294264510165  0.008420766519187535  0.999955883943572  1.0000
  Re  Re8       1.0  0.0008151490283109515  0.0016779132057949222  0.9997645736193272  1.0000
  Re  Re9       1.0  0.004166666292343473  0.005000000145126153  0.9995326376003223  1.0000
  Re  Re10      1.0  0.005793975103852537  0.0050432361286101  0.9998744365526768  1.0000
  Re  Re11      1.0  0.009166666184084892  0.008333333091456412  0.9996440845736605  1.0000
  Re  Re12      1.0  0.002499999855166864  0.0016666666545728207  0.9994211906298354  1.0000
  Rh  Rh19      1.0  0.0075441321326645445  0.0066505793842378605  0.9997504606361469  1.0000
  Rh  Rh20      1.0  0.0008562532620299682  0.009977079791287695  0.999534170253645  1.0000
  Rh  Rh21      1.0  0.0044390105111236  0.003147990885148788  0.9999718644935206  1.0000
  Rh  Rh22      1.0  0.008832101330151162  0.0036749160096902476  0.9999676999779485  1.0000
  Rh  Rh23      1.0  0.002395475792572121  0.006779988374814645  0.9997528864920511  1.0000
  Rh  Rh24      1.0  0.0058333331576270854  2.2920000093461243e-05  0.9995311049496132  1.0000
  Rh  Rh25      1.0  0.0008713541358092618  0.004908296743160147  0.9998703188501917  1.0000
  Rh  Rh26      1.0  0.004143747014057907  0.008333333091456412  0.9996440845736605  1.0000
  Rh  Rh27      1.0  0.007477080232499703  0.0016666666545728207  0.9994211906298354  1.0000
  Rh  Rh28      1.0  0.005810413162656879  0.00668958639162513  0.9994196581724577  1.0000
  Rh  Rh29      1.0  0.009052648854605773  0.009937069236552843  0.9998710354203241  1.0000
  Rh  Rh30      1.0  0.002477080057245621  0.003356253445294871  0.9996425519203378  1.0000
  Rh  Rh31      1.0  0.004318326835178479  0.009816520197613058  0.9998695952994654  1.0000
  Rh  Rh32      1.0  0.007499999590563547  0.003310413535811794  0.9996456175968929  1.0000
  Rh  Rh33      1.0  0.0008333333574143386  0.0066437468449574355  0.9994227232803069  1.0000
  Rh  Rh34      1.0  0.002480985644846986  0.008431281634598818  0.9999659922364504  1.0000
  Rh  Rh35      1.0  0.005795574523269545  0.001759633742515554  0.9997500671851841  1.0000
  Rh  Rh36      1.0  0.009189586242784554  0.005000000145126153  0.9995326376003223  1.0000
