data_image0
_chemical_formula_structural       COV12Rh4V12Rh4
_chemical_formula_sum              "C1 O1 V24 Rh8"
_cell_length_a       4.781739234924316
_cell_length_b       6.762400150299072
_cell_length_c       103.81200408935547
_cell_angle_alpha    90.0
_cell_angle_beta     90.0
_cell_angle_gamma    90.0

_space_group_name_H-M_alt    "P 1"
_space_group_IT_number       1

loop_
  _space_group_symop_operation_xyz
  'x, y, z'

loop_
  _atom_site_type_symbol
  _atom_site_label
  _atom_site_symmetry_multiplicity
  _atom_site_fract_x
  _atom_site_fract_y
  _atom_site_fract_z
  _atom_site_occupancy
  C   C1        1.0  1.099999956338745e-09  0.008125088009044844  1.4821352441164365e-05  1.0000
  O   O1        1.0  1.099999956338745e-09  0.008125088009044844  0.0001304151551421134  1.0000
  V   V1        1.0  1.9999998572941494e-10  0.006875000396635655  0.9987925236968932  1.0000
  V   V2        1.0  1.9999998572941494e-10  0.001875000033052971  0.9991182277110193  1.0000
  V   V3        1.0  1.9999998572941494e-10  0.0043750000771236  0.9992810800051621  1.0000
  V   V4        1.0  1.9999998572941494e-10  0.009375000440706284  0.9989553757039562  1.0000
  V   V5        1.0  0.0050000001869758325  0.006875000396635655  0.9989553757039562  1.0000
  V   V6        1.0  0.0050000001869758325  0.001875000033052971  0.9992810800051621  1.0000
  V   V7        1.0  0.0050000001869758325  0.009375000440706284  0.9987925236968932  1.0000
  V   V8        1.0  0.0050000001869758325  0.0043750000771236  0.9991182277110193  1.0000
  V   V9        1.0  0.007500000280463748  0.0031250000550882852  0.9988739495568848  1.0000
  V   V10       1.0  0.007500000280463748  0.00812500041867097  0.9991996538580907  1.0000
  V   V11       1.0  0.0025000000934879162  0.0031250000550882852  0.9988739495568848  1.0000
  V   V12       1.0  0.0025000000934879162  0.00812500041867097  0.9991996538580907  1.0000
  Rh  Rh1       1.0  0.0050000001869758325  0.005625000374600341  0.9993625061522335  1.0000
  Rh  Rh2       1.0  0.0050000001869758325  0.0006250000110176571  0.9990368018510276  1.0000
  Rh  Rh3       1.0  1.9999998572941494e-10  0.005625000374600341  0.9990368018510276  1.0000
  Rh  Rh4       1.0  1.9999998572941494e-10  0.0006250000110176571  0.9993625061522335  1.0000
  V   V13       1.0  1.9999998572941494e-10  0.006875000396635655  0.9994439317251455  1.0000
  V   V14       1.0  0.009999999594885699  0.0019314872855179471  0.9997695387063219  1.0000
  V   V15       1.0  6.19999990588149e-09  0.004454662695838414  0.9999330742502286  1.0000
  V   V16       1.0  1.9999998572941494e-10  0.009375000440706284  0.9996067840192883  1.0000
  V   V17       1.0  0.0050000001869758325  0.006875000396635655  0.9996067840192883  1.0000
  V   V18       1.0  0.004999993564915118  0.0017952722724406051  0.9999330753985475  1.0000
  V   V19       1.0  0.0050000001869758325  0.009375000440706284  0.9994439317251455  1.0000
  V   V20       1.0  0.005000000966041799  0.00431847261021024  0.9997695220556974  1.0000
  V   V21       1.0  0.007500000280463748  0.0031250000550882852  0.9995253578722169  1.0000
  V   V22       1.0  0.007500111686896954  0.008125088009044844  0.9998479769275351  1.0000
  V   V23       1.0  0.0025000000934879162  0.0031250000550882852  0.9995253578722169  1.0000
  V   V24       1.0  0.0024998898556536607  0.008125088009044844  0.9998479763533756  1.0000
  Rh  Rh5       1.0  0.005000029791482558  0.005419527680444367  0.0  1.0000
  Rh  Rh6       1.0  0.0050000001869758325  0.0006250000110176571  0.9996882101663597  1.0000
  Rh  Rh7       1.0  1.9999998572941494e-10  0.005625000374600341  0.9996882101663597  1.0000
  Rh  Rh8       1.0  0.009999970769444939  0.0008304790403264583  0.9999999718661862  1.0000
