data_image0
_chemical_formula_structural       HCu2Ni2Sb4Cu2Ni2Sb4Cu2Ni2Sb4Cu2Ni2Sb4
_chemical_formula_sum              "H1 Cu8 Ni8 Sb16"
_cell_length_a       6.644524213343008
_cell_length_b       8.28608472481936
_cell_length_c       109.86714935302734
_cell_angle_alpha    71.83445088750459
_cell_angle_beta     102.85164373542455
_cell_angle_gamma    71.83445035819632

_space_group_name_H-M_alt    "P 1"
_space_group_IT_number       1

loop_
  _space_group_symop_operation_xyz
  'x, y, z'

loop_
  _atom_site_type_symbol
  _atom_site_label
  _atom_site_symmetry_multiplicity
  _atom_site_fract_x
  _atom_site_fract_y
  _atom_site_fract_z
  _atom_site_occupancy
  H   H1        1.0  0.004788548697650393  0.0031736635984183545  0.9999897929950217  1.0000
  Cu  Cu1       1.0  0.0013978255327379036  0.0025000000275540745  0.999496165336787  1.0000
  Cu  Cu2       1.0  0.006397825677851471  0.002500000215015203  0.9997985544544244  1.0000
  Ni  Ni1       1.0  0.003897825526428618  0.002500000029689823  0.9999497488811627  1.0000
  Ni  Ni2       1.0  0.008897825829274326  0.0025000001637572435  0.9996473600332489  1.0000
  Sb  Sb1       1.0  0.0011021745398188804  0.0008333333443070435  0.9999172309739925  1.0000
  Sb  Sb2       1.0  0.006102174448334239  0.0008333333752753944  0.9996148421231985  1.0000
  Sb  Sb3       1.0  0.0016934764467908569  0.00416666650091462  0.9996798776723841  1.0000
  Sb  Sb4       1.0  0.006693476276440146  0.004166666558579825  0.9993774888199013  1.0000
  Cu  Cu3       1.0  0.0013978255327379036  0.0025000000275540745  0.9988913873678585  1.0000
  Cu  Cu4       1.0  0.006397825677851471  0.002500000215015203  0.999193776485496  1.0000
  Ni  Ni3       1.0  0.003897825526428618  0.002500000029689823  0.9993449709122343  1.0000
  Ni  Ni4       1.0  0.008897825829274326  0.0025000001637572435  0.9990425820643205  1.0000
  Sb  Sb5       1.0  0.0011021745398188804  0.0008333333443070435  0.9993124530050641  1.0000
  Sb  Sb6       1.0  0.006102174448334239  0.0008333333752753944  0.99901006415427  1.0000
  Sb  Sb7       1.0  0.0016934764467908569  0.00416666650091462  0.9990750997034555  1.0000
  Sb  Sb8       1.0  0.006693476276440146  0.004166666558579825  0.9987727108509729  1.0000
  Cu  Cu5       1.0  0.0013978255327379036  0.007500000358770751  0.9994961653724004  1.0000
  Cu  Cu6       1.0  0.006397825677851471  0.007500000309648539  0.9997985544956006  1.0000
  Ni  Ni5       1.0  0.003897825526428618  0.007500000360906499  0.9999497489167761  1.0000
  Ni  Ni6       1.0  0.008897825829274326  0.0075000002583905795  0.9996473600744251  1.0000
  Sb  Sb9       1.0  0.0011021745398188804  0.00583333367552372  0.999917231009606  1.0000
  Sb  Sb10      1.0  0.006102174448334239  0.00583333370649207  0.9996148421588118  1.0000
  Sb  Sb11      1.0  0.0016934764467908569  0.009166666595547957  0.9996798777135601  1.0000
  Sb  Sb12      1.0  0.006693476276440146  0.009166666653213161  0.9993774888610775  1.0000
  Cu  Cu7       1.0  0.0013978255327379036  0.007500000358770751  0.9988913874034719  1.0000
  Cu  Cu8       1.0  0.006397825677851471  0.007500000309648539  0.9991937765266721  1.0000
  Ni  Ni7       1.0  0.003897825526428618  0.007500000360906499  0.9993449709478476  1.0000
  Ni  Ni8       1.0  0.008897825829274326  0.0075000002583905795  0.9990425821054966  1.0000
  Sb  Sb13      1.0  0.0011021745398188804  0.00583333367552372  0.9993124530406775  1.0000
  Sb  Sb14      1.0  0.006102174448334239  0.00583333370649207  0.9990100641898834  1.0000
  Sb  Sb15      1.0  0.0016934764467908569  0.009166666595547957  0.9990750997446317  1.0000
  Sb  Sb16      1.0  0.006693476276440146  0.009166666653213161  0.998772710892149  1.0000
