data_image0
_chemical_formula_structural       HCo2Pt2Co2Pt2Co2Pt2Co2Pt2Co2Pt2Co2Pt2
_chemical_formula_sum              "H1 Co12 Pt12"
_cell_length_a       5.364039421081543
_cell_length_b       7.878593182940365
_cell_length_c       99.5022201538086
_cell_angle_alpha    109.90237986931247
_cell_angle_beta     90.0
_cell_angle_gamma    90.0

_space_group_name_H-M_alt    "P 1"
_space_group_IT_number       1

loop_
  _space_group_symop_operation_xyz
  'x, y, z'

loop_
  _atom_site_type_symbol
  _atom_site_label
  _atom_site_symmetry_multiplicity
  _atom_site_fract_x
  _atom_site_fract_y
  _atom_site_fract_z
  _atom_site_occupancy
  H   H1        1.0  0.001250000114591421  0.008330941911148576  0.00023268650513991196  1.0000
  Co  Co1       1.0  0.0037500000833392156  4.392905104998805e-05  0.9994924649955295  1.0000
  Co  Co2       1.0  0.0037500000833392156  0.005043928883059478  0.9996272368436492  1.0000
  Pt  Pt1       1.0  0.0012500000277797386  0.0025439291143803675  0.999425079142796  1.0000
  Pt  Pt2       1.0  0.0012500000277797386  0.0075439289031743375  0.9995598509897509  1.0000
  Co  Co3       1.0  0.0037500000833392156  4.392905104998805e-05  0.9997620088565725  1.0000
  Co  Co4       1.0  0.0037500000833392156  0.005015741929692868  0.9998901705333143  1.0000
  Pt  Pt3       1.0  0.0012500000277797386  0.0025439291143803675  0.999694623003839  1.0000
  Pt  Pt4       1.0  0.0012500000277797386  0.0075439289031743375  0.9998293948507939  1.0000
  Co  Co5       1.0  0.0037500000833392156  0.009956071237629682  2.020886943035775e-05  1.0000
  Co  Co6       1.0  0.0037500000833392156  0.00505514492901482  0.00013625824949735078  1.0000
  Pt  Pt5       1.0  0.0012500000277797386  0.0024725206069499705  0.9999717753292328  1.0000
  Pt  Pt6       1.0  0.001250000114591421  0.007535019528793472  9.780810970589892e-05  1.0000
  Co  Co7       1.0  0.00875000019445817  4.392905104998805e-05  0.9994924649955295  1.0000
  Co  Co8       1.0  0.00875000019445817  0.005043928883059478  0.9996272368436492  1.0000
  Pt  Pt7       1.0  0.006250000138898692  0.0025439291143803675  0.999425079142796  1.0000
  Pt  Pt8       1.0  0.006250000138898692  0.0075439289031743375  0.9995598509897509  1.0000
  Co  Co9       1.0  0.00875000019445817  4.392905104998805e-05  0.9997620088565725  1.0000
  Co  Co10      1.0  0.00875000019445817  0.005015741929692868  0.9998901705333143  1.0000
  Pt  Pt9       1.0  0.006250000138898692  0.0025439291143803675  0.999694623003839  1.0000
  Pt  Pt10      1.0  0.006250000138898692  0.0075439289031743375  0.9998293948507939  1.0000
  Co  Co11      1.0  0.00875000019445817  0.009956071237629682  2.020886943035775e-05  1.0000
  Co  Co12      1.0  0.00875000019445817  0.00505514492901482  0.00013625824949735078  1.0000
  Pt  Pt11      1.0  0.006250000138898692  0.0024725206069499705  0.9999717753292328  1.0000
  Pt  Pt12      1.0  0.006250000138898692  0.007535019528793472  9.780810970589892e-05  1.0000
