data_image0
_chemical_formula_structural       COSi24
_chemical_formula_sum              "C1 O1 Si24"
_cell_length_a       7.775730133056641
_cell_length_b       7.775730436714424
_cell_length_c       108.0931396484375
_cell_angle_alpha    90.0
_cell_angle_beta     90.0
_cell_angle_gamma    119.99999870817044

_space_group_name_H-M_alt    "P 1"
_space_group_IT_number       1

loop_
  _space_group_symop_operation_xyz
  'x, y, z'

loop_
  _atom_site_type_symbol
  _atom_site_label
  _atom_site_symmetry_multiplicity
  _atom_site_fract_x
  _atom_site_fract_y
  _atom_site_fract_z
  _atom_site_occupancy
  C   C1        1.0  0.005833333385159904  0.005833333296452814  0.00014831635538267124  1.0000
  O   O1        1.0  0.005833333385159904  0.005833333296452814  0.0002593319513559586  1.0000
  Si  Si1       1.0  0.0008333333627869139  0.0008333333379433983  0.9994126493777272  1.0000
  Si  Si2       1.0  0.0041666667092731076  0.002499999944679221  0.0  1.0000
  Si  Si3       1.0  0.0024999999648905014  0.00416666648226407  0.9997063251024281  1.0000
  Si  Si4       1.0  0.0024999999648905014  0.00416666648226407  0.9999265812756071  1.0000
  Si  Si5       1.0  0.0008333332989233395  0.005833333296452814  0.9996329058266158  1.0000
  Si  Si6       1.0  0.0041666667092731076  0.002499999944679221  0.9993392306533343  1.0000
  Si  Si7       1.0  0.0008333332989233395  0.005833333296452814  0.9994126493777272  1.0000
  Si  Si8       1.0  0.00416666668924949  0.007500000110641558  0.0  1.0000
  Si  Si9       1.0  0.002499999836508188  0.009166666371622511  0.9997063251024281  1.0000
  Si  Si10      1.0  0.002499999836508188  0.009166666371622511  0.9999265812756071  1.0000
  Si  Si11      1.0  0.0008333333627869139  0.0008333333379433983  0.9996329058266158  1.0000
  Si  Si12      1.0  0.00416666668924949  0.007500000110641558  0.9993392306533343  1.0000
  Si  Si13      1.0  0.005833333329250472  0.0008333333379433983  0.9994126493777272  1.0000
  Si  Si14      1.0  0.009166667035055686  0.002499999944679221  0.0  1.0000
  Si  Si15      1.0  0.007499999901410808  0.00416666648226407  0.9997063251024281  1.0000
  Si  Si16      1.0  0.007499999901410808  0.00416666648226407  0.9999265812756071  1.0000
  Si  Si17      1.0  0.005833333385159904  0.005833333296452814  0.9996329058266158  1.0000
  Si  Si18      1.0  0.009166667035055686  0.002499999944679221  0.9993392306533343  1.0000
  Si  Si19      1.0  0.005833333385159904  0.005833333296452814  0.9994126493777272  1.0000
  Si  Si20      1.0  0.009166666715599552  0.007500000110641558  0.0  1.0000
  Si  Si21      1.0  0.007499999922744752  0.009166666371622511  0.9997063251024281  1.0000
  Si  Si22      1.0  0.007499999922744752  0.009166666371622511  0.9999265812756071  1.0000
  Si  Si23      1.0  0.005833333329250472  0.0008333333379433983  0.9996329058266158  1.0000
  Si  Si24      1.0  0.009166666715599552  0.007500000110641558  0.9993392306533343  1.0000
