data_image0
_chemical_formula_structural       CONa60Sn16
_chemical_formula_sum              "C1 O1 Na60 Sn16"
_cell_length_a       13.384970664978027
_cell_length_b       13.384970664978027
_cell_length_c       110.15491485595703
_cell_angle_alpha    90.0
_cell_angle_beta     90.0
_cell_angle_gamma    90.0

_space_group_name_H-M_alt    "P 1"
_space_group_IT_number       1

loop_
  _space_group_symop_operation_xyz
  'x, y, z'

loop_
  _atom_site_type_symbol
  _atom_site_label
  _atom_site_symmetry_multiplicity
  _atom_site_fract_x
  _atom_site_fract_y
  _atom_site_fract_z
  _atom_site_occupancy
  C   C1        1.0  0.005581409426854374  0.00997086918466688  0.00014843843339468668  1.0000
  O   O1        1.0  0.005581409426854374  0.00997086918466688  0.00025737614474770966  1.0000
  Na  Na1       1.0  0.00019059159917158758  0.0025291303143591035  0.9992086723134249  1.0000
  Na  Na2       1.0  0.003940591490627217  2.913019972650693e-05  0.9990567841073782  1.0000
  Na  Na3       1.0  0.0014405915629901308  2.913019972650693e-05  0.9996643361199178  1.0000
  Na  Na4       1.0  0.007845445164710994  0.0009187599090434245  0.9999834104651022  1.0000
  Na  Na5       1.0  0.002535762932040884  0.00414053801421131  0.999983408841807  1.0000
  Na  Na6       1.0  0.00019059159917158758  0.007529130169633276  0.9989048959013314  1.0000
  Na  Na7       1.0  0.001729933003653539  0.009647946898927187  0.998903023159876  1.0000
  Na  Na8       1.0  0.001427047173770885  0.007880332995336926  0.9998846491907766  1.0000
  Na  Na9       1.0  0.008925178880232138  0.0029103133735428294  0.9994772903178888  1.0000
  Na  Na10      1.0  0.006151250116760345  0.008763717737362292  0.9991031018572227  1.0000
  Na  Na11      1.0  0.006151250116760345  0.0012945426074706386  0.9990104663575335  1.0000
  Na  Na12      1.0  0.0023094083980452233  0.005989788973890499  0.9989067686427868  1.0000
  Na  Na13      1.0  0.008071774650005746  0.009068471365376054  0.9989067686427868  1.0000
  Na  Na14      1.0  0.004776459960303976  0.0037932903783811783  0.9997588827790466  1.0000
  Na  Na15      1.0  0.004083114980653229  0.0018785877198648053  0.999999944266868  1.0000
  Na  Na16      1.0  0.0005717747975147627  0.006263717670565756  0.9991735139057952  1.0000
  Na  Na17      1.0  0.0039560039562964696  0.008489788484049236  0.9993142422285288  1.0000
  Na  Na18      1.0  0.0005717747975147627  0.0037945425351077248  0.9989400540384119  1.0000
  Na  Na19      1.0  0.006297649754092562  0.0031819490008093247  0.0  1.0000
  Na  Na20      1.0  0.001306968433034852  0.0013640073865123295  0.9999247754225329  1.0000
  Na  Na21      1.0  0.009809408598434832  0.001263717815291583  0.9989400540384119  1.0000
  Na  Na22      1.0  0.00865125018355688  0.004647947043653015  0.9992105450548804  1.0000
  Na  Na23      1.0  0.001729933003653539  0.0004103134111158805  0.9992105450548804  1.0000
  Na  Na24      1.0  0.0036512500499638087  0.0004103134111158805  0.9995105754429647  1.0000
  Na  Na25      1.0  0.0039251790249579645  0.002147946976856479  0.9992438301799563  1.0000
  Na  Na26      1.0  0.004229932931290625  0.003763717882088119  0.9990104663575335  1.0000
  Na  Na27      1.0  0.0023094083980452233  0.004068471510101881  0.9992067990308712  1.0000
  Na  Na28      1.0  0.0014560040286593834  0.002147946976856479  0.9994772903178888  1.0000
  Na  Na29      1.0  0.009229933064883697  0.0012945426074706386  0.9997106541403116  1.0000
  Na  Na30      1.0  0.0030978015082515275  0.00604489388933891  0.999811476458325  1.0000
  Na  Na31      1.0  0.005190752114030201  0.007529288811405699  0.999875343381025  1.0000
  Na  Na32      1.0  0.00894059162422029  0.005029130102836741  0.9996643361199178  1.0000
  Na  Na33      1.0  0.006440591557423753  0.005029130102836741  0.9990567841073782  1.0000
  Na  Na34      1.0  0.002690591457228949  0.006279130414553908  0.9993605602489226  1.0000
  Na  Na35      1.0  0.0076905913125031216  0.008779129924712645  0.9993605602489226  1.0000
  Na  Na36      1.0  0.005190591802344384  0.0025291303143591035  0.9995124481844202  1.0000
  Na  Na37      1.0  0.006729932998087161  0.004647947043653015  0.9995105754429647  1.0000
  Na  Na38      1.0  0.006456003744774106  0.0029103133735428294  0.9992438301799563  1.0000
  Na  Na39      1.0  0.0039251790249579645  0.007910313507135901  0.9988697380348  1.0000
  Na  Na40      1.0  0.0011512501919064473  0.003763717882088119  0.9997106541403116  1.0000
  Na  Na41      1.0  0.0011512501919064473  0.006294542601904261  0.9996180186406224  1.0000
  Na  Na42      1.0  0.007309408531638295  0.0009897887707177027  0.9995143209258756  1.0000
  Na  Na43      1.0  0.0030717747947315737  0.004068471510101881  0.9995143209258756  1.0000
  Na  Na44      1.0  0.009809408598434832  0.008794542668700797  0.9991735139057952  1.0000
  Na  Na45      1.0  0.008956003811570643  0.006568471298579517  0.999406877728218  1.0000
  Na  Na46      1.0  0.005602508225948847  0.0012678779870342047  0.9997587231550277  1.0000
  Na  Na47      1.0  0.00907433777112892  0.003694753242107909  0.9999248381899437  1.0000
  Na  Na48      1.0  0.005571774583209211  0.008794542668700797  0.9995476060509516  1.0000
  Na  Na49      1.0  0.0014251792364803277  0.008489788484049236  0.999406877728218  1.0000
  Na  Na50      1.0  0.0064251793700733995  0.006568471298579517  0.9993142422285288  1.0000
  Na  Na51      1.0  0.004809408464841759  0.006263717670565756  0.9995476060509516  1.0000
  Na  Na52      1.0  0.003624517798034921  0.00963126001101947  0.9998225154061527  1.0000
  Na  Na53      1.0  0.0067563827563335765  0.00542679492889963  0.9998226030640885  1.0000
  Na  Na54      1.0  0.00865125018355688  0.005410313440339365  0.998903023159876  1.0000
  Na  Na55      1.0  0.008954473057626209  0.0071765802804585254  0.9998846827388754  1.0000
  Na  Na56      1.0  0.009229933064883697  0.008763717737362292  0.9996180186406224  1.0000
  Na  Na57      1.0  0.007283481456284179  0.00901455765481531  0.9998115787259167  1.0000
  Na  Na58      1.0  0.006456003744774106  0.007147946832130651  0.9988697380348  1.0000
  Na  Na59      1.0  0.004229932931290625  0.006294542601904261  0.9991031018572227  1.0000
  Na  Na60      1.0  0.008071774650005746  0.0009897887707177027  0.9992067990308712  1.0000
  Sn  Sn1       1.0  0.0022814384619725364  0.0021199770407837916  0.9990070677186773  1.0000
  Sn  Sn2       1.0  0.005599744519281898  0.0004382833123987053  0.9993108435896726  1.0000
  Sn  Sn3       1.0  0.009781438662362144  0.0004382833123987053  0.9994102763670742  1.0000
  Sn  Sn4       1.0  0.005581409426854374  0.00997086918466688  0.9999912006583219  1.0000
  Sn  Sn5       1.0  0.0022814384619725364  0.007938283443208589  0.999106500496079  1.0000
  Sn  Sn6       1.0  0.003099744730804261  0.0021199770407837916  0.9997140527791678  1.0000
  Sn  Sn7       1.0  0.008099744586078433  0.0029382833096155163  0.9990070677186773  1.0000
  Sn  Sn8       1.0  0.004781438528769072  0.004619977107580327  0.9993108435896726  1.0000
  Sn  Sn9       1.0  0.0072814385955656084  0.007119976896057964  0.9996146200017662  1.0000
  Sn  Sn10      1.0  0.000651507874015713  0.005488593970506497  0.9998905163203926  1.0000
  Sn  Sn11      1.0  0.004799907214268111  0.0050902467065032896  0.9999915377626059  1.0000
  Sn  Sn12      1.0  0.0005997446640077251  0.004619977107580327  0.9994102763670742  1.0000
  Sn  Sn13      1.0  0.0072814385955656084  0.0029382833096155163  0.9997140527791678  1.0000
  Sn  Sn14      1.0  0.008099744586078433  0.007119976896057964  0.999106500496079  1.0000
  Sn  Sn15      1.0  0.003099744730804261  0.007938283443208589  0.9996146200017662  1.0000
  Sn  Sn16      1.0  0.009730584233139076  0.009568384431911317  0.9998903447922096  1.0000
