data_image0
_chemical_formula_structural       COAs4Ru2As4Ru2As4Ru2
_chemical_formula_sum              "C1 O1 As12 Ru6"
_cell_length_a       5.51255989074707
_cell_length_b       6.964995503067255
_cell_length_c       103.29071044921875
_cell_angle_alpha    115.75473766344
_cell_angle_beta     90.0
_cell_angle_gamma    90.0

_space_group_name_H-M_alt    "P 1"
_space_group_IT_number       1

loop_
  _space_group_symop_operation_xyz
  'x, y, z'

loop_
  _atom_site_type_symbol
  _atom_site_label
  _atom_site_symmetry_multiplicity
  _atom_site_fract_x
  _atom_site_fract_y
  _atom_site_fract_z
  _atom_site_occupancy
  C   C1        1.0  0.009946227814662395  0.006697902169582787  0.000244098773227846  1.0000
  O   O1        1.0  0.009946227814662395  0.006697902169582787  0.00036027538448225193  1.0000
  As  As1       1.0  0.00334456375810117  0.008653730526542069  0.9995062600656194  1.0000
  As  As2       1.0  0.006762979707025783  0.001347420718410391  0.9992921844689983  1.0000
  As  As3       1.0  0.0017629798016353024  0.0036537301227235757  0.9995062602384458  1.0000
  As  As4       1.0  0.008344563663491652  0.0063474209737662025  0.9992921845803505  1.0000
  Ru  Ru1       1.0  0.005053771563617906  0.005000575251319527  0.9993992222564339  1.0000
  Ru  Ru2       1.0  5.3771848291192055e-05  5.754000315787695e-07  0.9993992224454494  1.0000
  As  As5       1.0  0.00334456375810117  0.008653730526542069  0.9997992611308207  1.0000
  As  As6       1.0  0.006762979707025783  0.001347420718410391  0.9995851855341996  1.0000
  As  As7       1.0  0.0017629798016353024  0.0036537301227235757  0.9997992610151185  1.0000
  As  As8       1.0  0.008344563663491652  0.0063474209737662025  0.9995851856455519  1.0000
  Ru  Ru3       1.0  0.005053771563617906  0.005000575251319527  0.9996922233216352  1.0000
  Ru  Ru4       1.0  5.3771848291192055e-05  5.754000315787695e-07  0.9996922232221223  1.0000
  As  As9       1.0  0.0026190050434766964  0.008247548508197573  9.515359485349376e-05  1.0000
  As  As10      1.0  0.00684221788263074  0.0012761749624002228  0.9998860945874589  1.0000
  As  As11      1.0  0.0024887674375075474  0.0032474064709813563  9.514932927878617e-05  1.0000
  As  As12      1.0  0.008265494433457006  0.006276303192587101  0.999886093832029  1.0000
  Ru  Ru5       1.0  0.004730911848277731  0.004999530074044919  0.9999834472995229  1.0000
  Ru  Ru6       1.0  0.00037712583501550863  0.009999424772434503  0.9999834622068178  1.0000
