data_image0
_chemical_formula_structural       COV4Pt4V4Pt4V4Pt4
_chemical_formula_sum              "C1 O1 V12 Pt12"
_cell_length_a       4.819263458251953
_cell_length_b       9.237752978077669
_cell_length_c       99.85537719726562
_cell_angle_alpha    107.08606834861597
_cell_angle_beta     90.0
_cell_angle_gamma    90.0

_space_group_name_H-M_alt    "P 1"
_space_group_IT_number       1

loop_
  _space_group_symop_operation_xyz
  'x, y, z'

loop_
  _atom_site_type_symbol
  _atom_site_label
  _atom_site_symmetry_multiplicity
  _atom_site_fract_x
  _atom_site_fract_y
  _atom_site_fract_z
  _atom_site_occupancy
  C   C1        1.0  0.0008450145320275761  0.005360073184587095  0.00016261873900793043  1.0000
  O   O1        1.0  0.0008450145320275761  0.005360073184587095  0.0002827921843532342  1.0000
  V   V1        1.0  0.009132821751263119  0.0011903537484550114  0.9993498419420671  1.0000
  V   V2        1.0  0.009132821751263119  0.0061903539425236164  0.9994857447396684  1.0000
  V   V3        1.0  0.0025454893373379594  0.0036903537400172458  0.999417793338001  1.0000
  V   V4        1.0  0.0025454893373379594  0.008690354145029985  0.9995536961413359  1.0000
  Pt  Pt1       1.0  0.004023898656296083  0.0011903537484550114  0.9994857445553207  1.0000
  Pt  Pt2       1.0  0.004023898656296083  0.0061903539425236164  0.99934984182796  1.0000
  Pt  Pt3       1.0  0.007654412239055014  0.0036903537400172458  0.9995536959512545  1.0000
  Pt  Pt4       1.0  0.007654412239055014  0.008690354145029985  0.9994177932296275  1.0000
  V   V5        1.0  0.009132821751263119  0.0011903537484550114  0.9996216474670291  1.0000
  V   V6        1.0  0.009132821751263119  0.0061903539425236164  0.9997575502646304  1.0000
  V   V7        1.0  0.0025454893373379594  0.0036903537400172458  0.9996895988629629  1.0000
  V   V8        1.0  0.0025495586022004353  0.008719451779075163  0.9998308553341051  1.0000
  Pt  Pt5       1.0  0.004023898656296083  0.0011903537484550114  0.9997575503787375  1.0000
  Pt  Pt6       1.0  0.004023898656296083  0.0061903539425236164  0.999621647352922  1.0000
  Pt  Pt7       1.0  0.0075765989744653265  0.0036668309375839725  0.9998244982968382  1.0000
  Pt  Pt8       1.0  0.007654412239055014  0.008690354145029985  0.9996895987545894  1.0000
  V   V9        1.0  0.009154985978152376  0.001164997736012534  0.9998966096907081  1.0000
  V   V10       1.0  0.00907881920340589  0.005969160031522951  7.517151370375354e-06  1.0000
  V   V11       1.0  0.0026112101775792327  0.0035983521428900067  0.999954790428287  1.0000
  V   V12       1.0  0.0024019577447567603  0.008835002757596744  6.506131730483922e-05  1.0000
  Pt  Pt9       1.0  0.00421991211262933  0.0012231533466054208  3.324599104942554e-05  1.0000
  Pt  Pt10      1.0  0.0039327349099777895  0.006190750095610008  0.99990565851103  1.0000
  Pt  Pt11      1.0  0.007840327997349884  0.00361577739414371  9.41148066849719e-05  1.0000
  Pt  Pt12      1.0  0.007671724345406347  0.008564619627425  0.9999696130541246  1.0000
