data_image0
_chemical_formula_structural       COV18Pt6V18Pt6
_chemical_formula_sum              "C1 O1 V36 Pt12"
_cell_length_a       4.820059299468994
_cell_length_b       10.777980150236171
_cell_length_c       110.8995590209961
_cell_angle_alpha    71.56505117707799
_cell_angle_beta     90.0
_cell_angle_gamma    90.0

_space_group_name_H-M_alt    "P 1"
_space_group_IT_number       1

loop_
  _space_group_symop_operation_xyz
  'x, y, z'

loop_
  _atom_site_type_symbol
  _atom_site_label
  _atom_site_symmetry_multiplicity
  _atom_site_fract_x
  _atom_site_fract_y
  _atom_site_fract_z
  _atom_site_occupancy
  C   C1        1.0  0.0049999732740759984  0.007831432329805307  0.999763569720841  1.0000
  O   O1        1.0  0.0049999732740759984  0.007831432329805307  0.9998717759610157  1.0000
  V   V1        1.0  1.6000000173216797e-09  0.007527056253587393  0.9986344908109774  1.0000
  V   V2        1.0  1.6000000173216797e-09  0.0041937230951350985  0.9990442664456473  1.0000
  V   V3        1.0  1.6000000173216797e-09  0.000860389481263432  0.998839378709492  1.0000
  V   V4        1.0  1.6000000173216797e-09  0.005860389674361246  0.998532046667169  1.0000
  V   V5        1.0  1.6000000173216797e-09  0.0025270561515734536  0.998941822313036  1.0000
  V   V6        1.0  1.6000000173216797e-09  0.00919372283281354  0.9987369344173208  1.0000
  V   V7        1.0  0.005000001870350957  0.007527056253587393  0.9987881563884503  1.0000
  V   V8        1.0  0.005000001870350957  0.0041937230951350985  0.9985832686382986  1.0000
  V   V9        1.0  0.005000001870350957  0.000860389481263432  0.9989930442869648  1.0000
  V   V10       1.0  0.005000001870350957  0.00919372283281354  0.9985832688398479  1.0000
  V   V11       1.0  0.005000001870350957  0.005860389674361246  0.9989930444745178  1.0000
  V   V12       1.0  0.005000001870350957  0.0025270561515734536  0.9987881567355632  1.0000
  V   V13       1.0  0.007500001452999917  0.005027056384748173  0.9987881565564082  1.0000
  V   V14       1.0  0.007500001452999917  0.0016937228619603802  0.998583268548721  1.0000
  V   V15       1.0  0.007500001452999917  0.008360389907535964  0.9989930442953627  1.0000
  V   V16       1.0  0.002500001708047775  0.005027056384748173  0.9987881565564082  1.0000
  V   V17       1.0  0.002500001708047775  0.0016937228619603802  0.998583268548721  1.0000
  V   V18       1.0  0.002500001708047775  0.008360389907535964  0.9989930442953627  1.0000
  Pt  Pt1       1.0  0.005000001870350957  0.006693723328309817  0.9985832684591435  1.0000
  Pt  Pt2       1.0  0.005000001870350957  0.0033603894411865275  0.9989930446536728  1.0000
  Pt  Pt3       1.0  0.005000001870350957  2.705615180116336e-05  0.9987881563700799  1.0000
  Pt  Pt4       1.0  1.6000000173216797e-09  0.006693723328309817  0.9988906006890194  1.0000
  Pt  Pt5       1.0  1.6000000173216797e-09  0.0033603894411865275  0.9986857124237969  1.0000
  Pt  Pt6       1.0  1.6000000173216797e-09  2.705615180116336e-05  0.9990954885999558  1.0000
  V   V19       1.0  1.6000000173216797e-09  0.007527056253587393  0.999249154195799  1.0000
  V   V20       1.0  0.009999988283255991  0.004178328827348484  0.9996377930852657  1.0000
  V   V21       1.0  0.00999999833059584  0.0008672152157299852  0.9994506537490397  1.0000
  V   V22       1.0  1.6000000173216797e-09  0.005860389674361246  0.9991467105894557  1.0000
  V   V23       1.0  0.00999999060187288  0.0025558362877153113  0.9995527617644017  1.0000
  V   V24       1.0  1.6000000173216797e-09  0.00919372283281354  0.9993515983396074  1.0000
  V   V25       1.0  0.005000001870350957  0.007527056253587393  0.9994028203107369  1.0000
  V   V26       1.0  0.005000001870350957  0.0041937230951350985  0.9991979325605852  1.0000
  V   V27       1.0  0.004999993368755699  0.0009907205774427337  0.9996082190390555  1.0000
  V   V28       1.0  0.005000001870350957  0.00919372283281354  0.9991979322246695  1.0000
  V   V29       1.0  0.0049999980059894766  0.005922344925754372  0.9995955435680434  1.0000
  V   V30       1.0  0.005000001870350957  0.0025270561515734536  0.9994028201203847  1.0000
  V   V31       1.0  0.007500001452999917  0.005027056384748173  0.9994028199412297  1.0000
  V   V32       1.0  0.007500001452999917  0.0016937228619603802  0.9991979322022752  1.0000
  V   V33       1.0  0.007296729083256228  0.0083671009674046  0.9995989406835163  1.0000
  V   V34       1.0  0.002500001708047775  0.005027056384748173  0.9994028199412297  1.0000
  V   V35       1.0  0.002500001708047775  0.0016937228619603802  0.9991979322022752  1.0000
  V   V36       1.0  0.0027032174648957694  0.00836711554082451  0.9995989391606984  1.0000
  Pt  Pt7       1.0  0.005000001870350957  0.006693723328309817  0.9991979323814302  1.0000
  Pt  Pt8       1.0  0.004999992595883403  0.0033744331172829664  0.9996089844957594  1.0000
  Pt  Pt9       1.0  0.005000001870350957  2.705615180116336e-05  0.9994028202923666  1.0000
  Pt  Pt10      1.0  0.009999992147617471  0.006686076654882949  0.9995179268864297  1.0000
  Pt  Pt11      1.0  1.6000000173216797e-09  0.0033603894411865275  0.9993003763460836  1.0000
  Pt  Pt12      1.0  0.009999981327405325  0.009972943921293647  0.9996934996765521  1.0000
