data_image0
_chemical_formula_structural       HMn6Ru12Sb6
_chemical_formula_sum              "H1 Mn6 Ru12 Sb6"
_cell_length_a       6.2041826248168945
_cell_length_b       7.598541161403114
_cell_length_c       103.4105453491211
_cell_angle_alpha    94.34775303772442
_cell_angle_beta     90.0
_cell_angle_gamma    114.09484150511818

_space_group_name_H-M_alt    "P 1"
_space_group_IT_number       1

loop_
  _space_group_symop_operation_xyz
  'x, y, z'

loop_
  _atom_site_type_symbol
  _atom_site_label
  _atom_site_symmetry_multiplicity
  _atom_site_fract_x
  _atom_site_fract_y
  _atom_site_fract_z
  _atom_site_occupancy
  H   H1        1.0  0.007986190334987391  0.005900216955745546  8.910742697297012e-05  1.0000
  Mn  Mn1       1.0  0.006820759739697285  0.0037960327670346606  0.9998132792059664  1.0000
  Mn  Mn2       1.0  0.0026269305484254136  0.005328418796933354  0.9995201471212924  1.0000
  Mn  Mn3       1.0  0.001871317806908779  0.00315604710787756  1.758062188481883e-05  1.0000
  Mn  Mn4       1.0  0.009710263749592107  0.009495085104320868  0.999654766613534  1.0000
  Mn  Mn5       1.0  0.005543597374839751  0.0011617523548161572  0.9993855279164946  1.0000
  Mn  Mn6       1.0  0.00382285613004447  0.007978209963770865  0.9999136234148179  1.0000
  Ru  Ru1       1.0  0.005474560029294528  0.005709592240294634  0.9999683291012463  1.0000
  Ru  Ru2       1.0  0.0007519305059795847  0.006578418689149609  0.9997220761804941  1.0000
  Ru  Ru3       1.0  0.006585264060934379  0.008245085751023342  0.9994528375573345  1.0000
  Ru  Ru4       1.0  0.001585264036916451  0.008245085751023342  0.9994528375573345  1.0000
  Ru  Ru5       1.0  0.000289735957502916  0.005674673001361696  0.9999704412917675  1.0000
  Ru  Ru6       1.0  0.005751930529997512  0.006578418689149609  0.9997220761804941  1.0000
  Ru  Ru7       1.0  0.009501930962023286  0.004078418904717099  0.9993182180620909  1.0000
  Ru  Ru8       1.0  0.007872063716646997  0.0005049142018212693  0.9998532957072266  1.0000
  Ru  Ru9       1.0  0.0036685975264158055  0.0024117523817620934  0.9995874569764468  1.0000
  Ru  Ru10      1.0  0.008668597700545785  0.0024117523817620934  0.9995874569764468  1.0000
  Ru  Ru11      1.0  0.004501930637781258  0.004078418904717099  0.9993182180620909  1.0000
  Ru  Ru12      1.0  0.0025821809746260295  0.0005690700174851103  0.9998484073730254  1.0000
  Sb  Sb1       1.0  0.0017379325384252256  0.00364308008737554  0.9997845224953605  1.0000
  Sb  Sb2       1.0  0.007626930595898349  0.005328418796933354  0.9995201471212924  1.0000
  Sb  Sb3       1.0  0.006226515992923755  0.002478228545688581  4.466066665836272e-05  1.0000
  Sb  Sb4       1.0  0.004710263650518153  0.009495085104320868  0.999654766613534  1.0000
  Sb  Sb5       1.0  0.0005435973766223318  0.0011617523548161572  0.9993855279164946  1.0000
  Sb  Sb6       1.0  0.009593164366753117  0.009052916300489355  4.806049271472266e-05  1.0000
