data_image0
_chemical_formula_structural       HGa3Co3Ga3Co3Ga3Co3Ga3Co3Ga3Co3Ga3Co3Ga3Co3Ga3Co3
_chemical_formula_sum              "H1 Ga24 Co24"
_cell_length_a       8.213470458984375
_cell_length_b       8.213470246914396
_cell_length_c       100.17821502685547
_cell_angle_alpha    90.0
_cell_angle_beta     90.0
_cell_angle_gamma    59.999999145888616

_space_group_name_H-M_alt    "P 1"
_space_group_IT_number       1

loop_
  _space_group_symop_operation_xyz
  'x, y, z'

loop_
  _atom_site_type_symbol
  _atom_site_label
  _atom_site_symmetry_multiplicity
  _atom_site_fract_x
  _atom_site_fract_y
  _atom_site_fract_z
  _atom_site_occupancy
  H   H1        1.0  2.9000000060129114e-09  2.25000017416061e-09  0.00012298600539398209  1.0000
  Ga  Ga1       1.0  0.0033333341592597775  0.0033333340037005614  0.9994356571781331  1.0000
  Ga  Ga2       1.0  6.999999683595116e-10  6.50000005916398e-10  0.9992682985973789  1.0000
  Ga  Ga3       1.0  0.0016666673367918565  0.0016666673946435784  0.9991009403141177  1.0000
  Co  Co1       1.0  0.0033333341592597775  0.0033333340037005614  0.9991846194557482  1.0000
  Co  Co2       1.0  6.999999683595116e-10  6.50000005916398e-10  0.9995193363197636  1.0000
  Co  Co3       1.0  0.0016666673367918565  0.0016666673946435784  0.9993519780365024  1.0000
  Ga  Ga4       1.0  0.00333333151747432  0.0033333311232163795  0.9999551969522014  1.0000
  Ga  Ga5       1.0  0.00999999898964196  0.009999999916204098  0.999768734855462  1.0000
  Ga  Ga6       1.0  0.0016666673367918565  0.0016666673946435784  0.9996030157588873  1.0000
  Co  Co4       1.0  0.0033333341592597775  0.0033333340037005614  0.999686695198011  1.0000
  Co  Co5       1.0  2.9000000060129114e-09  2.25000017416061e-09  0.0  1.0000
  Co  Co6       1.0  0.0016666642414477821  0.0016666645141593963  0.999855866403898  1.0000
  Ga  Ga7       1.0  0.0033333338536465497  0.00833333396180261  0.9994356571781331  1.0000
  Ga  Ga8       1.0  5.313382244443288e-10  0.005000001005550842  0.9992682985973789  1.0000
  Ga  Ga9       1.0  0.0016666674192716952  0.0066666674836767265  0.9991009403141177  1.0000
  Co  Co7       1.0  0.0033333338536465497  0.00833333396180261  0.9991846194557482  1.0000
  Co  Co8       1.0  5.313382244443288e-10  0.005000001005550842  0.9995193363197636  1.0000
  Co  Co9       1.0  0.0016666674192716952  0.0066666674836767265  0.9993519780365024  1.0000
  Ga  Ga10      1.0  0.003333331534488609  0.008333331343180626  0.9999551969522014  1.0000
  Ga  Ga11      1.0  0.009999999557117388  0.004999999434377652  0.999768734855462  1.0000
  Ga  Ga12      1.0  0.0016666674192716952  0.0066666674836767265  0.9996030157588873  1.0000
  Co  Co10      1.0  0.0033333338536465497  0.00833333396180261  0.999686695198011  1.0000
  Co  Co11      1.0  2.693882637076451e-09  0.005000002576724032  0.0  1.0000
  Co  Co12      1.0  0.0016666641929965218  0.006666664865054742  0.999855866403898  1.0000
  Ga  Ga13      1.0  0.00833333350613537  0.0033333340037005614  0.9994356571781331  1.0000
  Ga  Ga14      1.0  0.005000000836110056  6.50000005916398e-10  0.9992682985973789  1.0000
  Ga  Ga15      1.0  0.006666667137226065  0.0016666673946435784  0.9991009403141177  1.0000
  Co  Co13      1.0  0.00833333350613537  0.0033333340037005614  0.9991846194557482  1.0000
  Co  Co14      1.0  0.005000000836110056  6.50000005916398e-10  0.9995193363197636  1.0000
  Co  Co15      1.0  0.006666667137226065  0.0016666673946435784  0.9993519780365024  1.0000
  Ga  Ga16      1.0  0.008333331317908529  0.0033333311232163795  0.9999551969522014  1.0000
  Ga  Ga17      1.0  0.004999998735649136  0.009999999916204098  0.999768734855462  1.0000
  Ga  Ga18      1.0  0.006666667137226065  0.0016666673946435784  0.9996030157588873  1.0000
  Co  Co16      1.0  0.00833333350613537  0.0033333340037005614  0.999686695198011  1.0000
  Co  Co17      1.0  0.0050000027574616706  2.25000017416061e-09  0.0  1.0000
  Co  Co18      1.0  0.006666664041881991  0.0016666645141593963  0.999855866403898  1.0000
  Ga  Ga19      1.0  0.008333334107639374  0.00833333396180261  0.9994356571781331  1.0000
  Ga  Ga20      1.0  0.0050000003317724325  0.005000001005550842  0.9992682985973789  1.0000
  Ga  Ga21      1.0  0.006666667673264521  0.0066666674836767265  0.9991009403141177  1.0000
  Co  Co19      1.0  0.008333334107639374  0.00833333396180261  0.9991846194557482  1.0000
  Co  Co20      1.0  0.0050000003317724325  0.005000001005550842  0.9995193363197636  1.0000
  Co  Co21      1.0  0.006666667673264521  0.0066666674836767265  0.9993519780365024  1.0000
  Ga  Ga22      1.0  0.008333331788481436  0.008333331343180626  0.9999551969522014  1.0000
  Ga  Ga23      1.0  0.0049999993031245625  0.004999999434377652  0.999768734855462  1.0000
  Ga  Ga24      1.0  0.006666667673264521  0.0066666674836767265  0.9996030157588873  1.0000
  Co  Co22      1.0  0.008333334107639374  0.00833333396180261  0.999686695198011  1.0000
  Co  Co23      1.0  0.005000002721096154  0.005000002576724032  0.0  1.0000
  Co  Co24      1.0  0.006666664446989347  0.006666664865054742  0.999855866403898  1.0000
