data_image0
_chemical_formula_structural       HAs18Cr24
_chemical_formula_sum              "H1 As18 Cr24"
_cell_length_a       6.65559952772712
_cell_length_b       11.574559378162023
_cell_length_c       101.57908630371094
_cell_angle_alpha    85.01273862130473
_cell_angle_beta     86.90912277018117
_cell_angle_gamma    88.84356150553809

_space_group_name_H-M_alt    "P 1"
_space_group_IT_number       1

loop_
  _space_group_symop_operation_xyz
  'x, y, z'

loop_
  _atom_site_type_symbol
  _atom_site_label
  _atom_site_symmetry_multiplicity
  _atom_site_fract_x
  _atom_site_fract_y
  _atom_site_fract_z
  _atom_site_occupancy
  H   H1        1.0  0.006197087653475021  0.007171229352451145  0.9999911784339712  1.0000
  As  As1       1.0  0.007118712734519152  0.004496340370261888  0.9998020910872402  1.0000
  As  As2       1.0  0.000667667544571616  0.0010967809152979111  0.999255217542157  1.0000
  As  As3       1.0  0.009001000816111398  0.0027634477252117535  0.9995142852589972  1.0000
  As  As4       1.0  0.008796476166553515  0.009595960944552284  0.9998638165412258  1.0000
  As  As5       1.0  0.002800603701475844  0.006022561267364297  0.9993091735507088  1.0000
  As  As6       1.0  0.0011339369540164315  0.007689228158056623  0.9995682413753705  1.0000
  As  As7       1.0  0.0006322667545026127  0.0023115919567978163  0.9998410116080079  1.0000
  As  As8       1.0  0.00436315490330374  0.00892560164227489  0.9993080718728226  1.0000
  As  As9       1.0  0.002696488175001392  0.0005922682389335391  0.9995671397942141  1.0000
  As  As10      1.0  0.004611115845397972  0.0017679398437753966  0.9998889250814006  1.0000
  As  As11      1.0  0.009105116340402801  0.008193740834420994  0.9992563190146995  1.0000
  As  As12      1.0  0.007438449890676866  0.009860407078885459  0.9995153874314914  1.0000
  As  As13      1.0  0.0038684637838977956  0.0037092206179733314  0.9995383648905919  1.0000
  As  As14      1.0  0.002154719597932405  0.005598191185468513  0.999817930189582  1.0000
  As  As15      1.0  0.00553513025108813  0.002042553727281006  0.99927929677353  1.0000
  As  As16      1.0  0.007933141013958525  0.005076788374602719  0.9992850942115143  1.0000
  As  As17      1.0  0.006266473994962234  0.006743454942181114  0.9995441623337264  1.0000
  As  As18      1.0  0.004056633777090232  0.00847666843936447  0.9998290957035953  1.0000
  Cr  Cr1       1.0  0.0072725976694011495  0.0025050517376746665  0.999733702830216  1.0000
  Cr  Cr2       1.0  0.0009008022571798916  0.009393004037466244  0.9994117294167385  1.0000
  Cr  Cr3       1.0  0.009271812289398794  0.0010289593012361915  0.999669017883796  1.0000
  Cr  Cr4       1.0  0.007178134347769081  0.004622527669202306  0.9995307361137604  1.0000
  Cr  Cr5       1.0  0.005672832970775995  0.0065380016568661985  0.9997895443877749  1.0000
  Cr  Cr6       1.0  0.008844800806227215  0.0029558611016239113  0.9992716677001383  1.0000
  Cr  Cr7       1.0  0.00462347045881944  0.004163481000259814  0.9992927229915157  1.0000
  Cr  Cr8       1.0  0.002956803720092227  0.005830147567838209  0.9995517911127376  1.0000
  Cr  Cr9       1.0  0.0005705013877091462  0.0076474831306611105  0.9998108922413356  1.0000
  Cr  Cr10      1.0  0.0036340274461068244  0.0037523708678536194  0.9997699437812382  1.0000
  Cr  Cr11      1.0  0.007467075000500888  0.00013959254872573584  0.9992691661614675  1.0000
  Cr  Cr12      1.0  0.005800408543680041  0.0018062590557202682  0.9995282342822936  1.0000
  Cr  Cr13      1.0  0.0021804612242459238  0.0003647669514408462  0.9998094323932997  1.0000
  Cr  Cr14      1.0  0.00600119624981018  0.006979750098412748  0.9992952245248373  1.0000
  Cr  Cr15      1.0  0.004334529239546089  0.008646416342877212  0.9995542929436096  1.0000
  Cr  Cr16      1.0  0.00047949794629946615  0.004166111147656014  0.9996663548261733  1.0000
  Cr  Cr17      1.0  0.00861056910951466  0.006124151518327353  0.9999089148842336  1.0000
  Cr  Cr18      1.0  0.002281102488506029  0.0023173427385370757  0.9994046891715136  1.0000
  Cr  Cr19      1.0  0.005671476804332074  0.00038156023254152876  0.9997222342796631  1.0000
  Cr  Cr20      1.0  0.00952050245821703  0.006468665930925045  0.9994187699332674  1.0000
  Cr  Cr21      1.0  0.00762144148339123  0.008269939500251004  0.9996914263182727  1.0000
  Cr  Cr22      1.0  0.00919216923145436  0.006035906518931601  0.9996699490494446  1.0000
  Cr  Cr23      1.0  0.007236204786562269  0.007704783508910169  0.9999221351096346  1.0000
  Cr  Cr24      1.0  0.0009008022547516488  0.00439300433473106  0.9994117296074401  1.0000
