data_image0
_chemical_formula_structural       COGe4Na8Zn4
_chemical_formula_sum              "C1 O1 Ge4 Na8 Zn4"
_cell_length_a       6.018742825697089
_cell_length_b       5.608514308929443
_cell_length_c       105.31127166748047
_cell_angle_alpha    90.0
_cell_angle_beta     87.16836544819243
_cell_angle_gamma    90.0

_space_group_name_H-M_alt    "P 1"
_space_group_IT_number       1

loop_
  _space_group_symop_operation_xyz
  'x, y, z'

loop_
  _atom_site_type_symbol
  _atom_site_label
  _atom_site_symmetry_multiplicity
  _atom_site_fract_x
  _atom_site_fract_y
  _atom_site_fract_z
  _atom_site_occupancy
  C   C1        1.0  0.008677593159592274  0.00375082472276817  0.0001397686727369114  1.0000
  O   O1        1.0  0.008677593159592274  0.00375082472276817  0.0002537168202494118  1.0000
  Ge  Ge1       1.0  0.0034698488557610187  0.008750000106275283  0.9996824719435262  1.0000
  Ge  Ge2       1.0  0.0018031824431733586  0.008750000106275283  0.9991236321081005  1.0000
  Ge  Ge3       1.0  0.008819931937365267  0.00375082472276817  0.9999750980172569  1.0000
  Ge  Ge4       1.0  0.007271028510629218  0.0037500000929908727  0.9994275617869998  1.0000
  Na  Na1       1.0  0.006944649773332772  0.008750000106275283  0.9990152058139065  1.0000
  Na  Na2       1.0  0.008611316340846656  0.008750000106275283  0.9995740456488947  1.0000
  Na  Na3       1.0  0.00046289465168747725  0.0037500000929908727  0.998977148529089  1.0000
  Na  Na4       1.0  0.0021295613353960285  0.0037500000929908727  0.9995359880807564  1.0000
  Na  Na5       1.0  0.004574961777097881  0.0037500000929908727  0.999174118679587  1.0000
  Na  Na6       1.0  0.006085249222899978  0.0037499177296462212  0.9997364976698364  1.0000
  Na  Na7       1.0  0.006344743830654345  0.008749992135629027  0.9999509889004058  1.0000
  Na  Na8       1.0  0.0044992490217784726  0.008750000106275283  0.9993770752159506  1.0000
  Zn  Zn1       1.0  0.0011207571390053407  0.0012766861421260173  0.9998292507931567  1.0000
  Zn  Zn2       1.0  0.00953710525690605  0.0012500000863486676  0.9992755968774231  1.0000
  Zn  Zn3       1.0  0.0011206522539519723  0.006223216237383955  0.9998292210920591  1.0000
  Zn  Zn4       1.0  0.00953710525690605  0.006250000265688208  0.9992755968774231  1.0000
