data_image0
_chemical_formula_structural       COV12Ga4V12Ga4
_chemical_formula_sum              "C1 O1 V24 Ga8"
_cell_length_a       6.791942596435547
_cell_length_b       4.802628517150879
_cell_length_c       103.959716796875
_cell_angle_alpha    90.0
_cell_angle_beta     90.0
_cell_angle_gamma    90.0

_space_group_name_H-M_alt    "P 1"
_space_group_IT_number       1

loop_
  _space_group_symop_operation_xyz
  'x, y, z'

loop_
  _atom_site_type_symbol
  _atom_site_label
  _atom_site_symmetry_multiplicity
  _atom_site_fract_x
  _atom_site_fract_y
  _atom_site_fract_z
  _atom_site_occupancy
  C   C1        1.0  0.0018750000603335387  0.006250000310270952  3.2766590308910593e-06  1.0000
  O   O1        1.0  0.0018750000603335387  0.006250000310270952  0.0001187062185605856  1.0000
  V   V1        1.0  0.00812500030715256  0.0012500000232703215  0.9994283413945758  1.0000
  V   V2        1.0  0.0031250000548486714  0.0012500000232703215  0.999755003372912  1.0000
  V   V3        1.0  0.005625000043878937  0.0012500000232703215  0.999591672097072  1.0000
  V   V4        1.0  0.0006249999972575663  0.0012500000232703215  0.9999183346487519  1.0000
  V   V5        1.0  0.00812500030715256  0.006250000310270952  0.9999183346487519  1.0000
  V   V6        1.0  0.0031250000548486714  0.006250000310270952  0.999591672097072  1.0000
  V   V7        1.0  0.0006249999972575663  0.006250000310270952  0.9994283413945758  1.0000
  V   V8        1.0  0.005625000043878937  0.006250000310270952  0.999755003372912  1.0000
  V   V9        1.0  0.004374999912242125  0.008749999968972905  0.0  1.0000
  V   V10       1.0  0.009375000438789373  0.008749999968972905  0.9996733380216638  1.0000
  V   V11       1.0  0.004374999912242125  0.0037500002637303087  0.0  1.0000
  V   V12       1.0  0.009375000438789373  0.0037500002637303087  0.9996733380216638  1.0000
  Ga  Ga1       1.0  0.006875000175515749  0.006250000310270952  0.9995100067458239  1.0000
  Ga  Ga2       1.0  0.0018750000603335387  0.006250000310270952  0.9998366687241601  1.0000
  Ga  Ga3       1.0  0.006875000175515749  0.0012500000232703215  0.9998366687241601  1.0000
  Ga  Ga4       1.0  0.0018750000603335387  0.0012500000232703215  0.9995100067458239  1.0000
  V   V13       1.0  0.00812500030715256  0.0012500000232703215  0.998775016577888  1.0000
  V   V14       1.0  0.0031250000548486714  0.0012500000232703215  0.999101678842896  1.0000
  V   V15       1.0  0.005625000043878937  0.0012500000232703215  0.9989383478537279  1.0000
  V   V16       1.0  0.0006249999972575663  0.0012500000232703215  0.9992650101187359  1.0000
  V   V17       1.0  0.00812500030715256  0.006250000310270952  0.9992650101187359  1.0000
  V   V18       1.0  0.0031250000548486714  0.006250000310270952  0.9989383478537279  1.0000
  V   V19       1.0  0.0006249999972575663  0.006250000310270952  0.998775016577888  1.0000
  V   V20       1.0  0.005625000043878937  0.006250000310270952  0.999101678842896  1.0000
  V   V21       1.0  0.004374999912242125  0.008749999968972905  0.999346675469984  1.0000
  V   V22       1.0  0.009375000438789373  0.008749999968972905  0.9990200134916478  1.0000
  V   V23       1.0  0.004374999912242125  0.0037500002637303087  0.999346675469984  1.0000
  V   V24       1.0  0.009375000438789373  0.0037500002637303087  0.9990200134916478  1.0000
  Ga  Ga5       1.0  0.006875000175515749  0.006250000310270952  0.9988566822158079  1.0000
  Ga  Ga6       1.0  0.0018750000603335387  0.006250000310270952  0.9991833444808159  1.0000
  Ga  Ga7       1.0  0.006875000175515749  0.0012500000232703215  0.9991833444808159  1.0000
  Ga  Ga8       1.0  0.0018750000603335387  0.0012500000232703215  0.9988566822158079  1.0000
