data_image0
_chemical_formula_structural       COSn28Sb22Pt16
_chemical_formula_sum              "C1 O1 Sn28 Sb22 Pt16"
_cell_length_a       9.580672254358909
_cell_length_b       13.477646243965093
_cell_length_c       110.27379608154297
_cell_angle_alpha    89.87870949476044
_cell_angle_beta     90.39932489340606
_cell_angle_gamma    89.98253126243897

_space_group_name_H-M_alt    "P 1"
_space_group_IT_number       1

loop_
  _space_group_symop_operation_xyz
  'x, y, z'

loop_
  _atom_site_type_symbol
  _atom_site_label
  _atom_site_symmetry_multiplicity
  _atom_site_fract_x
  _atom_site_fract_y
  _atom_site_fract_z
  _atom_site_occupancy
  C   C1        1.0  0.004108931869315568  0.006236350420992925  0.0001371675158423262  1.0000
  O   O1        1.0  0.004108931869315568  0.006236350420992925  0.00024598778634268647  1.0000
  Sn  Sn1       1.0  0.000736237526070254  0.004215479755194199  0.9991087425645594  1.0000
  Sn  Sn2       1.0  0.0007362375270572776  0.00921547972202551  0.9997174368914172  1.0000
  Sn  Sn3       1.0  0.00576618003242621  0.007568650983059804  0.9989115998346213  1.0000
  Sn  Sn4       1.0  0.005766179740055255  0.0025686504634170053  0.9995202934682169  1.0000
  Sn  Sn5       1.0  0.0056830667083352755  0.0017975395236332307  0.9999694749761363  1.0000
  Sn  Sn6       1.0  0.00574699083422336  0.00759323506273287  0.9992975112113884  1.0000
  Sn  Sn7       1.0  0.0023588268030867578  0.0018566640942800268  0.9998176068499156  1.0000
  Sn  Sn8       1.0  0.002231141260119958  0.006818574243980316  0.9992025455126546  1.0000
  Sn  Sn9       1.0  0.009200945865708552  0.00345071730253609  0.9996127299640237  1.0000
  Sn  Sn10      1.0  0.009200945769360442  0.008450717545773145  0.9990040360600069  1.0000
  Sn  Sn11      1.0  0.0016716947188417472  0.004271351583046898  0.9999042478402526  1.0000
  Sn  Sn12      1.0  0.0021299701710749156  0.009281449480919742  0.9993084755162864  1.0000
  Sn  Sn13      1.0  0.008281743946754464  0.004393985625061561  0.9999401478900339  1.0000
  Sn  Sn14      1.0  0.009054055110644724  0.009359589384717452  0.9993133408670084  1.0000
  Sn  Sn15      1.0  0.004184270960758649  0.003407194177697423  0.999010339950195  1.0000
  Sn  Sn16      1.0  0.004184270864286246  0.008407194697340222  0.9996190337363358  1.0000
  Sn  Sn17      1.0  0.005804718790594287  0.004188246050060202  0.9997008951725558  1.0000
  Sn  Sn18      1.0  0.005804718694370471  0.009188246016891513  0.9990922009983528  1.0000
  Sn  Sn19      1.0  0.004202670986565357  0.006807349406720942  0.9998156365746578  1.0000
  Sn  Sn20      1.0  0.004181730610717454  0.0018447338695622454  0.9992022466026772  1.0000
  Sn  Sn21      1.0  0.00492888547673556  0.004678984270717641  0.9999602326338837  1.0000
  Sn  Sn22      1.0  0.005132885413577392  0.009881382619918168  0.9993525203859203  1.0000
  Sn  Sn23      1.0  0.0007589319237454676  0.007661820725587278  0.9999065464090563  1.0000
  Sn  Sn24      1.0  0.0007454757216030714  0.0026676244501604267  0.9992944279992233  1.0000
  Sn  Sn25      1.0  0.007358795822977765  0.0008824343205555867  0.9988898641768289  1.0000
  Sn  Sn26      1.0  0.007358796504378519  0.005882434425589769  0.9994985582338054  1.0000
  Sn  Sn27      1.0  0.0073806693923237875  0.00950113566054056  0.9999331665546419  1.0000
  Sn  Sn28      1.0  0.0073650318591188015  0.004343545999293533  0.9993136910693486  1.0000
  Sb  Sb1       1.0  0.0042335602315447364  0.00587882843625498  0.9995017373652916  1.0000
  Sb  Sb2       1.0  0.004233559939080561  0.0008788281239164895  0.9988930435788617  1.0000
  Sb  Sb3       1.0  0.0007622040299792075  0.002644547887414536  0.9989179775390371  1.0000
  Sb  Sb4       1.0  0.0007622040308419377  0.00764454813065159  0.9995266713253084  1.0000
  Sb  Sb5       1.0  0.007244459573962702  0.006855823787649912  0.9998021844361668  1.0000
  Sb  Sb6       1.0  0.0072787539475558695  0.0018596195626965708  0.9991963589477  1.0000
  Sb  Sb7       1.0  0.0022986172139405356  0.005892539819586389  0.9988937640597054  1.0000
  Sb  Sb8       1.0  0.0022986173102575716  0.0008925396454507701  0.9995024579637044  1.0000
  Sb  Sb9       1.0  0.0007739003262561271  0.006094471905465662  0.9997134512038884  1.0000
  Sb  Sb10      1.0  0.0007739003253312502  0.0010944718004314794  0.9991047568770663  1.0000
  Sb  Sb11      1.0  0.002270945702966638  0.0033945021787494807  0.9996202266670979  1.0000
  Sb  Sb12      1.0  0.0022709458011645014  0.008394502145580792  0.9990115327632704  1.0000
  Sb  Sb13      1.0  0.00926376261527511  0.001837418791550196  0.9998035845317175  1.0000
  Sb  Sb14      1.0  0.009171524633476296  0.006872791230644345  0.9991969874144682  1.0000
  Sb  Sb15      1.0  0.009180934948958202  0.0058949815879279135  0.9988915816050047  1.0000
  Sb  Sb16      1.0  0.00918093504521309  0.0008949815519951665  0.9995002757792254  1.0000
  Sb  Sb17      1.0  0.007261535899897463  0.0034283555250438995  0.9990061305196042  1.0000
  Sb  Sb18      1.0  0.007261535803549354  0.008428355768280955  0.9996148243058166  1.0000
  Sb  Sb19      1.0  0.005725633441212615  0.006072581676172547  0.9991034817011908  1.0000
  Sb  Sb20      1.0  0.005725633537529651  0.001072581502036929  0.9997121756051898  1.0000
  Sb  Sb21      1.0  0.004149039700082979  0.009524433347881563  0.9999350721972595  1.0000
  Sb  Sb22      1.0  0.004220906070167365  0.004321546589731582  0.9993131264009387  1.0000
  Pt  Pt1       1.0  0.008228628568114025  0.005137982543398444  0.9991015257686218  1.0000
  Pt  Pt2       1.0  0.008228628664326186  0.0001379826024801715  0.9997102196725605  1.0000
  Pt  Pt3       1.0  0.0035257388813772143  0.0029864955141072538  0.9999877185084595  1.0000
  Pt  Pt4       1.0  0.0032303749466222006  0.007599920212054595  0.9994101072785905  1.0000
  Pt  Pt5       1.0  0.0032377316213693663  0.005132126611308389  0.9991046171015574  1.0000
  Pt  Pt6       1.0  0.003237731523369596  0.00013212620395542456  0.9997133107352416  1.0000
  Pt  Pt7       1.0  0.008181009150938737  0.0025129372924612998  0.9999988340701265  1.0000
  Pt  Pt8       1.0  0.008268051512574037  0.007616987713928316  0.9994100404182616  1.0000
  Pt  Pt9       1.0  0.0032637760410260674  0.007799163422857306  0.9999999583888268  1.0000
  Pt  Pt10      1.0  0.003227900434159538  0.0026284771046532823  0.9994116590525518  1.0000
  Pt  Pt11      1.0  0.008280198982704153  0.005166375494222315  0.9997104644297563  1.0000
  Pt  Pt12      1.0  0.008280199078935737  0.00016637551011564533  0.9991017703732193  1.0000
  Pt  Pt13      1.0  0.008227286281497286  0.007718292630309962  0.999992614463906  1.0000
  Pt  Pt14      1.0  0.008251889616583153  0.0026016604957868157  0.9994062447000966  1.0000
  Pt  Pt15      1.0  0.0032541709938631556  0.005118618109792996  0.9997123494419856  1.0000
  Pt  Pt16      1.0  0.0032541710901491184  0.00011861800475881356  0.9991036556557374  1.0000
