data_image0
_chemical_formula_structural       Ir8Sb24H
_chemical_formula_sum              "Ir8 Sb24 H1"
_cell_length_a       8.17861270904541
_cell_length_b       8.178613003645427
_cell_length_c       110.06685638427734
_cell_angle_alpha    90.0
_cell_angle_beta     90.0
_cell_angle_gamma    109.47122108586295

_space_group_name_H-M_alt    "P 1"
_space_group_IT_number       1

loop_
  _space_group_symop_operation_xyz
  'x, y, z'

loop_
  _atom_site_type_symbol
  _atom_site_label
  _atom_site_symmetry_multiplicity
  _atom_site_fract_x
  _atom_site_fract_y
  _atom_site_fract_z
  _atom_site_occupancy
  Ir  Ir1       1.0  0.005079586763476647  7.958664847233454e-05  0.9991102310862102  1.0000
  Ir  Ir2       1.0  7.958677225888152e-05  0.005079586661154285  0.9997169356471269  1.0000
  Ir  Ir3       1.0  0.0026794578375389  0.0025083123828487366  0.0  1.0000
  Ir  Ir4       1.0  0.007579586842603429  0.007579586448580648  0.9994135833666685  1.0000
  Ir  Ir5       1.0  7.958677225888152e-05  0.005079586661154285  0.9991102310862102  1.0000
  Ir  Ir6       1.0  0.005079586763476647  7.958664847233454e-05  0.9997169356471269  1.0000
  Ir  Ir7       1.0  0.007650948896140142  0.007479888930043145  0.9999999989169375  1.0000
  Ir  Ir8       1.0  0.0025795867033825202  0.0025795866321669703  0.9994135833666685  1.0000
  Sb  Sb1       1.0  0.006841055016130356  0.00023875994541700362  0.9989040907090355  1.0000
  Sb  Sb2       1.0  0.0018410551299415715  0.005238759867513597  0.9995107952699522  1.0000
  Sb  Sb3       1.0  0.0002387600301778026  0.006841054908342268  0.9993163714633849  1.0000
  Sb  Sb4       1.0  0.005258897947190723  0.0018505288708391455  0.999920590937293  1.0000
  Sb  Sb5       1.0  0.009920413515808147  0.003318118172405351  0.9989040907090355  1.0000
  Sb  Sb6       1.0  0.004920413734081189  0.008318118471940928  0.9995107952699522  1.0000
  Sb  Sb7       1.0  0.004329608353038206  0.0058295875153138044  1.7398316716323498e-05  1.0000
  Sb  Sb8       1.0  0.009150573920467801  0.0010085995210360396  0.9994097845247933  1.0000
  Sb  Sb9       1.0  0.00830871836794778  0.004900696766908045  0.9999205741498236  1.0000
  Sb  Sb10      1.0  0.003318118500872584  0.009920413512769599  0.9993163714633849  1.0000
  Sb  Sb11      1.0  0.002548278811335972  0.007610894680229576  0.9989975037704439  1.0000
  Sb  Sb12      1.0  0.007548278634439431  0.0026108946222549475  0.9996042083313608  1.0000
  Sb  Sb13      1.0  0.0042471312500651295  0.002707452089999256  0.9990168180248017  1.0000
  Sb  Sb14      1.0  0.009247131161540183  0.007707451906412934  0.9996235225857184  1.0000
  Sb  Sb15      1.0  0.0009480372992423544  0.009211183798926798  7.555985842345049e-06  1.0000
  Sb  Sb16      1.0  0.006008599775901523  0.004150573682907663  0.9994173822085437  1.0000
  Sb  Sb17      1.0  0.0008686927697387028  0.002454714356070086  0.999810252315969  1.0000
  Sb  Sb18      1.0  0.005912042295920819  0.007451720990748362  0.9992036441476186  1.0000
  Sb  Sb19      1.0  0.007610894626568262  0.002548278642078993  0.9992229584019764  1.0000
  Sb  Sb20      1.0  0.0027146083996566397  0.007444612335102379  0.9998331596303184  1.0000
  Sb  Sb21      1.0  0.007451721382204584  0.005912041930095646  0.9990168180248017  1.0000
  Sb  Sb22      1.0  0.0024517214707295305  0.000912042113681969  0.9996235225857184  1.0000
  Sb  Sb23      1.0  0.0077040837229707575  0.009290246697966163  0.999810252315969  1.0000
  Sb  Sb24      1.0  0.002707452083261044  0.004247130909091021  0.9992036441476186  1.0000
  H   H1        1.0  0.007626181093700966  0.00095057054174569  0.9998435115421196  1.0000
