data_image0
_chemical_formula_structural       HMn6Rh12Si6
_chemical_formula_sum              "H1 Mn6 Rh12 Si6"
_cell_length_a       7.273572853918569
_cell_length_b       5.938847541809082
_cell_length_c       101.98167419433594
_cell_angle_alpha    90.0
_cell_angle_beta     85.65224703028
_cell_angle_gamma    114.09484330912366

_space_group_name_H-M_alt    "P 1"
_space_group_IT_number       1

loop_
  _space_group_symop_operation_xyz
  'x, y, z'

loop_
  _atom_site_type_symbol
  _atom_site_label
  _atom_site_symmetry_multiplicity
  _atom_site_fract_x
  _atom_site_fract_y
  _atom_site_fract_z
  _atom_site_occupancy
  H   H1        1.0  0.003126949375443191  0.007186576227538079  9.952801174151028e-05  1.0000
  Mn  Mn1       1.0  0.0015962520634948373  0.006630305212626296  0.9999322997056079  1.0000
  Mn  Mn2       1.0  0.007708333258267131  0.004137019586517418  0.9994207549912084  1.0000
  Mn  Mn3       1.0  0.009375  0.009970353179282368  0.9996820900135135  1.0000
  Mn  Mn4       1.0  0.005441806675643384  0.002553110601329652  0.9998388569705419  1.0000
  Mn  Mn5       1.0  0.0018750000844494777  0.0012203530388132766  0.9992900873124182  1.0000
  Mn  Mn6       1.0  0.0035416666854332173  0.007053686521998975  0.9995514223354842  1.0000
  Rh  Rh1       1.0  0.004791666741732869  0.005178686311784321  0.9993554211514328  1.0000
  Rh  Rh2       1.0  0.006458333483465738  0.0010120196763780053  0.9996167564659699  1.0000
  Rh  Rh3       1.0  0.008383420693878344  0.006823652225689675  0.9998707522700305  1.0000
  Rh  Rh4       1.0  0.004166402808965282  0.005225848907033091  0.9999774725378351  1.0000
  Rh  Rh5       1.0  0.0006250000281498259  0.003095352954992799  0.9994860887887017  1.0000
  Rh  Rh6       1.0  0.0024466646374770836  0.00892578257412877  0.999728253149343  1.0000
  Rh  Rh7       1.0  0.004270337314634522  2.9647051248098107e-05  2.461337569354972e-05  1.0000
  Rh  Rh8       1.0  0.0006250000281498259  0.008095353118084287  0.9994860887887017  1.0000
  Rh  Rh9       1.0  0.002560387119108084  0.003821173827260539  0.9997429640815596  1.0000
  Rh  Rh10      1.0  0.004791666741732869  0.0001786863055115708  0.9993554211514328  1.0000
  Rh  Rh11      1.0  0.006458333483465738  0.006012019682650755  0.9996167564659699  1.0000
  Rh  Rh12      1.0  0.008840114461245661  0.00222653318308916  0.9998830675654609  1.0000
  Si  Si1       1.0  0.0015527203282368787  0.0008916008147690921  0.999940127854131  1.0000
  Si  Si2       1.0  0.007708333258267131  0.009137019808415933  0.9994207549912084  1.0000
  Si  Si3       1.0  0.009375  0.004970352996588538  0.9996820900135135  1.0000
  Si  Si4       1.0  0.005763848565827174  0.008461142921735375  0.9998219827626336  1.0000
  Si  Si5       1.0  0.0018750000844494777  0.006220353221507107  0.9992900873124182  1.0000
  Si  Si6       1.0  0.0035416666854332173  0.0020536863001004617  0.9995514223354842  1.0000
