data_image0
_chemical_formula_structural       V2Pt2V2Pt2V2Pt2V2Pt2V2Pt2V2Pt2V2Pt2V2Pt2H
_chemical_formula_sum              "V16 Pt16 H1"
_cell_length_a       5.428249835968018
_cell_length_b       8.830039978027344
_cell_length_c       36.26515579223633
_cell_angle_alpha    90.0
_cell_angle_beta     90.0
_cell_angle_gamma    90.0

_space_group_name_H-M_alt    "P 1"
_space_group_IT_number       1

loop_
  _space_group_symop_operation_xyz
  'x, y, z'

loop_
  _atom_site_type_symbol
  _atom_site_label
  _atom_site_symmetry_multiplicity
  _atom_site_fract_x
  _atom_site_fract_y
  _atom_site_fract_z
  _atom_site_occupancy
  V   V1        1.0  6.650000196702184e-09  0.003750000725647826  0.9989303793982303  1.0000
  V   V2        1.0  0.009999993686239252  0.001249999362948711  0.9993823533226801  1.0000
  Pt  Pt1       1.0  0.00250001008829163  0.0037499998818712843  0.9995578000283589  1.0000
  Pt  Pt2       1.0  0.0024999970490031283  0.0012500007340855914  0.0  1.0000
  V   V3        1.0  6.650000196702184e-09  0.003750000725647826  0.9976014829926926  1.0000
  V   V4        1.0  6.650000196702184e-09  0.0012500007340855914  0.9980549911980433  1.0000
  Pt  Pt3       1.0  0.0025000066568999194  0.003750000725647826  0.9982514564015583  1.0000
  Pt  Pt4       1.0  0.0025000066568999194  0.0012500007340855914  0.9987339141947152  1.0000
  V   V5        1.0  6.650000196702184e-09  0.008750000708772295  0.9989303793982303  1.0000
  V   V6        1.0  0.009999993686239252  0.006249999662489384  0.9993823533226801  1.0000
  Pt  Pt5       1.0  0.00250001008829163  0.008749999864995753  0.9995578000283589  1.0000
  Pt  Pt6       1.0  0.0024999970490031283  0.006250000928154196  0.0  1.0000
  V   V7        1.0  6.650000196702184e-09  0.008750000708772295  0.9976014829926926  1.0000
  V   V8        1.0  6.650000196702184e-09  0.006250000928154196  0.9980549911980433  1.0000
  Pt  Pt7       1.0  0.0025000066568999194  0.008750000708772295  0.9982514564015583  1.0000
  Pt  Pt8       1.0  0.0025000066568999194  0.006250000928154196  0.9987339141947152  1.0000
  V   V9        1.0  0.005000006794155587  0.003750000725647826  0.9989303793982303  1.0000
  V   V10       1.0  0.004999993411727914  0.001249999362948711  0.9993823533226801  1.0000
  Pt  Pt9       1.0  0.007500010019663795  0.0037499998818712843  0.9995578000283589  1.0000
  Pt  Pt10      1.0  0.007499996980375294  0.0012500007340855914  0.0  1.0000
  V   V11       1.0  0.005000006794155587  0.003750000725647826  0.9976014829926926  1.0000
  V   V12       1.0  0.005000006794155587  0.0012500007340855914  0.9980549911980433  1.0000
  Pt  Pt11      1.0  0.007500006588272085  0.003750000725647826  0.9982514564015583  1.0000
  Pt  Pt12      1.0  0.007500006588272085  0.0012500007340855914  0.9987339141947152  1.0000
  V   V13       1.0  0.005000006794155587  0.008750000708772295  0.9989303793982303  1.0000
  V   V14       1.0  0.004999993411727914  0.006249999662489384  0.9993823533226801  1.0000
  Pt  Pt13      1.0  0.007500010019663795  0.008749999864995753  0.9995578000283589  1.0000
  Pt  Pt14      1.0  0.007499996980375294  0.006250000928154196  0.0  1.0000
  V   V15       1.0  0.005000006794155587  0.008750000708772295  0.9976014829926926  1.0000
  V   V16       1.0  0.005000006794155587  0.006250000928154196  0.9980549911980433  1.0000
  Pt  Pt15      1.0  0.007500006588272085  0.008750000708772295  0.9982514564015583  1.0000
  Pt  Pt16      1.0  0.007500006588272085  0.006250000928154196  0.9987339141947152  1.0000
  H   H1        1.0  1.0150000369122914e-08  0.0037499998818712843  0.9999714202174458  1.0000
