data_image0
_chemical_formula_structural       COSi18W30
_chemical_formula_sum              "C1 O1 Si18 W30"
_cell_length_a       10.144383806024956
_cell_length_b       7.285191346913954
_cell_length_c       109.37139892578125
_cell_angle_alpha    94.33440609859603
_cell_angle_beta     92.61014970683476
_cell_angle_gamma    75.35267367425654

_space_group_name_H-M_alt    "P 1"
_space_group_IT_number       1

loop_
  _space_group_symop_operation_xyz
  'x, y, z'

loop_
  _atom_site_type_symbol
  _atom_site_label
  _atom_site_symmetry_multiplicity
  _atom_site_fract_x
  _atom_site_fract_y
  _atom_site_fract_z
  _atom_site_occupancy
  C   C1        1.0  0.004628114607020845  0.004860640798077815  0.00010945379060938559  1.0000
  O   O1        1.0  0.004628114607020845  0.004860640798077815  0.00021917191103717869  1.0000
  Si  Si1       1.0  0.0058333333181451365  0.004268887441420387  0.9995687440231779  1.0000
  Si  Si2       1.0  0.009166666697043059  0.005102220758837385  0.9992687618304473  1.0000
  Si  Si3       1.0  0.0025000001290996707  0.0034355540576853257  0.9998687267613511  1.0000
  Si  Si4       1.0  0.0008333333447244807  0.0030188874321358584  1.871758499500286e-05  1.0000
  Si  Si5       1.0  0.004166666818548633  0.003852220716393825  0.9997187353924986  1.0000
  Si  Si6       1.0  0.00750000057715147  0.004685553901174695  0.9994187532007042  1.0000
  Si  Si7       1.0  0.0027725889582394096  0.0031181685494719538  0.9993942215987689  1.0000
  Si  Si8       1.0  0.0061059223371373325  0.001451501733556336  0.999994186256383  1.0000
  Si  Si9       1.0  0.009439255336330341  0.0022848349272005853  0.9996942040614256  1.0000
  Si  Si10      1.0  0.006651099615711895  0.009064446199498893  0.9996423390945839  1.0000
  Si  Si11      1.0  0.009984433374314733  0.00989777835864426  0.9993423563526516  1.0000
  Si  Si12      1.0  0.0033177662368139723  0.008231112882081896  0.9999423212873144  1.0000
  Si  Si13      1.0  0.006682233899879797  0.009889995809062779  0.9993451585670267  1.0000
  Si  Si14      1.0  1.5567001177830215e-05  0.008223329223449222  0.9999451229521402  1.0000
  Si  Si15      1.0  0.0033489005209818737  0.009056662491645781  0.9996451407597571  1.0000
  Si  Si16      1.0  0.007227411178454359  0.005002939608342258  0.9998932583618823  1.0000
  Si  Si17      1.0  0.0005607446105109707  0.005836272784113938  0.9995932758961759  1.0000
  Si  Si18      1.0  0.003894078179261351  0.006669606035212872  0.999293293431426  1.0000
  W   W1        1.0  0.0034094915530054936  0.003926395483528818  0.9991559460673164  1.0000
  W   W2        1.0  0.006742824931903417  0.002259728924022076  0.9997559109987086  1.0000
  W   W3        1.0  7.615820377201718e-05  0.003093062155749622  0.9994559285326073  1.0000
  W   W4        1.0  0.009923842342291113  0.005028045859066265  0.999831551429053  1.0000
  W   W5        1.0  0.0032571752047903524  0.005861379233792137  0.9995315689619424  1.0000
  W   W6        1.0  0.006590508583688275  0.006694712551209134  0.9992315862242371  1.0000
  W   W7        1.0  0.00750000057715147  0.008435553203742552  0.9998687265682036  1.0000
  W   W8        1.0  0.0008333333447244807  0.009268887637262961  0.9995687441060223  1.0000
  W   W9        1.0  0.004166666818548633  0.00010222064459933915  0.9992687617486393  1.0000
  W   W10       1.0  0.009166666697043059  0.008852220061405241  0.9997187351979469  1.0000
  W   W11       1.0  0.0025000001290996707  0.009685554262812427  0.9994187527374037  1.0000
  W   W12       1.0  0.0058333333181451365  0.008018887769623749  1.8717940815265056e-05  1.0000
  W   W13       1.0  0.004753596829224598  0.0013820156014528544  0.9995318927904279  1.0000
  W   W14       1.0  0.008086930208122522  0.002215348662460976  0.9992319103239191  1.0000
  W   W15       1.0  0.001420263450326675  0.0005486823481380754  0.999831874983481  1.0000
  W   W16       1.0  0.005246403307469171  0.006739092299952482  0.9997555866239578  1.0000
  W   W17       1.0  0.008579737066072008  0.007572425997551105  0.999455604434745  1.0000
  W   W18       1.0  0.001913069928571248  0.008405759372276975  0.9991556219676344  1.0000
  W   W19       1.0  0.0054238492863345885  0.007528063921511614  0.9994715738416345  1.0000
  W   W20       1.0  0.008757183044937427  0.008361397106292485  0.9991715911048654  1.0000
  W   W21       1.0  0.002090515907436666  0.006694731116912369  0.9997715560369467  1.0000
  W   W22       1.0  0.005420248924335467  0.0034237062401132  0.9993369036040238  1.0000
  W   W23       1.0  0.008753582682938304  0.001757039035152579  0.9999368682612833  1.0000
  W   W24       1.0  0.0020869155454375436  0.0025903726662873257  0.9996368857954635  1.0000
  W   W25       1.0  0.007913084591256225  0.00553073523511801  0.9996505936189221  1.0000
  W   W26       1.0  0.0012464179283866081  0.006364068444048722  0.9993506111529816  1.0000
  W   W27       1.0  0.004579751592063217  0.004697401785064884  0.9999505758125887  1.0000
  W   W28       1.0  0.004576151230064094  0.0005930435908487174  0.999815906117371  1.0000
  W   W29       1.0  0.007909484229257102  0.0014263770409018433  0.9995159233787297  1.0000
  W   W30       1.0  0.0012428175663874858  0.002259710506241431  0.9992159411865675  1.0000
