data_image0
_chemical_formula_structural       COCa12Mn12Sb24
_chemical_formula_sum              "C1 O1 Ca12 Mn12 Sb24"
_cell_length_a       9.614374069822933
_cell_length_b       11.19887228165036
_cell_length_c       104.31008911132812
_cell_angle_alpha    82.30887189262941
_cell_angle_beta     86.85032179763408
_cell_angle_gamma    69.90344482110766

_space_group_name_H-M_alt    "P 1"
_space_group_IT_number       1

loop_
  _space_group_symop_operation_xyz
  'x, y, z'

loop_
  _atom_site_type_symbol
  _atom_site_label
  _atom_site_symmetry_multiplicity
  _atom_site_fract_x
  _atom_site_fract_y
  _atom_site_fract_z
  _atom_site_occupancy
  C   C1        1.0  0.00019258416755208588  0.006202504503997452  0.9999099042355271  1.0000
  O   O1        1.0  0.00019258416755208588  0.006202504503997452  2.4945501585605762e-05  1.0000
  Ca  Ca1       1.0  0.006492369272627152  0.0018051989251645678  0.9996089204283417  1.0000
  Ca  Ca2       1.0  0.00043526546199130546  0.0023286327675796606  0.9994303874180228  1.0000
  Ca  Ca3       1.0  0.0028893258629465483  0.001205627320582012  0.999790573051334  1.0000
  Ca  Ca4       1.0  0.00762668122197661  0.006177274020756306  0.999781240544248  1.0000
  Ca  Ca5       1.0  0.001741703831549677  0.006593793279993773  0.9996210859849924  1.0000
  Ca  Ca6       1.0  0.0055117898532958814  0.0071427879232565245  0.9994267914994482  1.0000
  Ca  Ca7       1.0  0.008213043394973456  0.0034397437470316742  0.9990649164256558  1.0000
  Ca  Ca8       1.0  0.0021019322447919115  0.003995299415211277  0.9988821808874998  1.0000
  Ca  Ca9       1.0  0.004324154428482381  0.0028841882573056674  0.9992476522075482  1.0000
  Ca  Ca10      1.0  0.009400679666006946  0.007698343234528935  0.9992440562872523  1.0000
  Ca  Ca11      1.0  0.0032895679875567514  0.00825389925961573  0.9990613207466434  1.0000
  Ca  Ca12      1.0  0.007178457024153596  0.008809454570888142  0.9988785852526689  1.0000
  Mn  Mn1       1.0  0.005666772652901902  0.009108681991876998  0.999650310423722  1.0000
  Mn  Mn2       1.0  0.009502190621189526  0.00959467252228974  0.9994742317325199  1.0000
  Mn  Mn3       1.0  0.001343458117418061  0.009316198540721271  0.9997158647039742  1.0000
  Mn  Mn4       1.0  0.009123179306900797  0.009364954204638546  0.9996624615618062  1.0000
  Mn  Mn5       1.0  0.0025559762140929154  0.009321193099970926  0.9995656830897547  1.0000
  Mn  Mn6       1.0  0.00644486525068976  0.009876748411243337  0.9993829473100713  1.0000
  Mn  Mn7       1.0  0.007279968826273123  0.0007057831252046649  0.999108760898468  1.0000
  Mn  Mn8       1.0  0.0011688573406137951  0.0012613386595440707  0.998926025363934  1.0000
  Mn  Mn9       1.0  0.0033910795243042653  0.00015022750163846098  0.9992914963982735  1.0000
  Mn  Mn10      1.0  0.00033375396915801204  0.0004323036136590541  0.9992002119735549  1.0000
  Mn  Mn11      1.0  0.004222642980084039  0.0009878592372252579  0.9990174761895143  1.0000
  Mn  Mn12      1.0  0.00811153229957934  0.0015434148161780627  0.9988347406902611  1.0000
  Sb  Sb1       1.0  0.003883296507167647  0.0036755762417949034  0.9997833201455234  1.0000
  Sb  Sb2       1.0  0.0075626247310210054  0.00430504703260165  0.9995653705405928  1.0000
  Sb  Sb3       1.0  0.0014515131927823487  0.004860602700781254  0.999382634718693  1.0000
  Sb  Sb4       1.0  0.0005956598501509605  0.004083601466761787  0.9996609506767759  1.0000
  Sb  Sb5       1.0  0.0044955426507734845  0.00461081763314774  0.9994745442012308  1.0000
  Sb  Sb6       1.0  0.006885504488307101  0.0034545789513886235  0.9998440717989434  1.0000
  Sb  Sb7       1.0  0.008140749398744858  0.007901030115246418  0.9995382049042058  1.0000
  Sb  Sb8       1.0  0.0020296380007177395  0.008456585426518828  0.9993554690867242  1.0000
  Sb  Sb9       1.0  0.004130177193034308  0.007684834297298734  0.999747333987603  1.0000
  Sb  Sb10      1.0  0.006668228623318708  0.009423555510363809  0.9998522602384612  1.0000
  Sb  Sb11      1.0  0.009198269727821952  0.0008255347232095068  0.9998425813900839  1.0000
  Sb  Sb12      1.0  0.003917417877890979  0.0010148348181833672  0.9995017098343043  1.0000
  Sb  Sb13      1.0  0.005340402089167656  0.005416158368960857  0.9991998995060094  1.0000
  Sb  Sb14      1.0  0.009229291125764502  0.0059717136802332664  0.999017164012035  1.0000
  Sb  Sb15      1.0  0.003118179975582955  0.006527269348412869  0.998834428473879  1.0000
  Sb  Sb16      1.0  0.0022733200089201364  0.0057219289695069455  0.9991090731666475  1.0000
  Sb  Sb17      1.0  0.006162209433574092  0.006277484280779356  0.9989263376707078  1.0000
  Sb  Sb18      1.0  0.0083844319352159  0.0051663733013273426  0.999291808986582  1.0000
  Sb  Sb19      1.0  0.009807416569602575  0.009567696762878034  0.9989899983717175  1.0000
  Sb  Sb20      1.0  0.003696304630878936  0.00012325190952700192  0.9988072627536216  1.0000
  Sb  Sb21      1.0  0.005918526756891508  0.009012141451605624  0.9991727338696224  1.0000
  Sb  Sb22      1.0  0.00780630719738628  0.001570390397136172  0.9993189746207599  1.0000
  Sb  Sb23      1.0  0.0016951952710905144  0.002125946065315775  0.9991362388008255  1.0000
  Sb  Sb24      1.0  0.0055840846256387  0.002681501555041782  0.9989535033026767  1.0000
