data_image0
_chemical_formula_structural       HAs48
_chemical_formula_sum              "H1 As48"
_cell_length_a       6.680486679077148
_cell_length_b       21.739766522786212
_cell_length_c       100.85584259033203
_cell_angle_alpha    95.0892815005062
_cell_angle_beta     90.0
_cell_angle_gamma    81.16168239481613

_space_group_name_H-M_alt    "P 1"
_space_group_IT_number       1

loop_
  _space_group_symop_operation_xyz
  'x, y, z'

loop_
  _atom_site_type_symbol
  _atom_site_label
  _atom_site_symmetry_multiplicity
  _atom_site_fract_x
  _atom_site_fract_y
  _atom_site_fract_z
  _atom_site_occupancy
  H   H1        1.0  0.001629012390235918  0.003028197794109912  0.0001612638822547008  1.0000
  As  As1       1.0  0.005628057016706533  0.008876841393554937  0.9995801080018252  1.0000
  As  As2       1.0  0.008128057197791952  0.0038768410313840982  0.999484501714154  1.0000
  As  As3       1.0  0.0031280568855149176  0.0038768410313840982  0.999675714275646  1.0000
  As  As4       1.0  0.0006280567044294986  0.008876841393554937  0.999388895440333  1.0000
  As  As5       1.0  0.0069914575506368985  0.00948337238017873  0.9994004930746908  1.0000
  As  As6       1.0  0.009491457557601723  0.004483372366249083  0.9996873119166626  1.0000
  As  As7       1.0  0.0044914578029622496  0.004483372366249083  0.9994960993551705  1.0000
  As  As8       1.0  0.001991457795997426  0.00948337238017873  0.9995917056361828  1.0000
  As  As9       1.0  0.005628056719619625  0.005543507702693981  0.9997075830359836  1.0000
  As  As10      1.0  0.008128056748349523  0.0005435076452341839  0.9996119767541388  1.0000
  As  As11      1.0  0.00312805671489127  0.0005435076452341839  0.9994207641926467  1.0000
  As  As12      1.0  0.0006280566861613715  0.005543507702693981  0.9995163704744915  1.0000
  As  As13      1.0  0.006991457079429396  0.006150039037558966  0.9995279681155079  1.0000
  As  As14      1.0  0.009491457173454516  0.0011500388495087226  0.9994323618311661  1.0000
  As  As15      1.0  0.004491457976452605  0.0011500388495087226  0.9996235743926583  1.0000
  As  As16      1.0  0.0019914578824274834  0.006150039037558966  0.999719180677  1.0000
  As  As17      1.0  0.008128056553724332  0.007210174374003863  0.9997394517963211  1.0000
  As  As18      1.0  0.0006280567725914298  0.0022101743600742153  0.9996438455153086  1.0000
  As  As19      1.0  0.005628056806049684  0.0022101743600742153  0.9994526329538165  1.0000
  As  As20      1.0  0.003128056799084859  0.007210174374003863  0.9995482392348289  1.0000
  As  As21      1.0  0.004491457890652787  0.007816705360627658  0.9993686243076945  1.0000
  As  As22      1.0  0.006991457810557313  0.0028167055208186053  0.9996554431529957  1.0000
  As  As23      1.0  0.001991457777099059  0.0028167055208186053  0.9994642305915036  1.0000
  As  As24      1.0  0.009491458202929822  0.007816705360627658  0.9995598368691866  1.0000
  As  As25      1.0  0.005466586537751766  0.008834777340042625  0.99993806119466  1.0000
  As  As26      1.0  0.007915787477307382  0.003780103110817947  0.9998955085627568  1.0000
  As  As27      1.0  0.002877182420269526  0.0037688768595299563  6.017319791185713e-05  1.0000
  As  As28      1.0  0.0006280567044294986  0.008876841393554937  0.9997713205633173  1.0000
  As  As29      1.0  0.0069914575506368985  0.00948337238017873  0.999782918197675  1.0000
  As  As30      1.0  0.00946078485453187  0.004421143058306073  7.361811407400259e-05  1.0000
  As  As31      1.0  0.004445808726117171  0.004445978923596172  0.9999153162592539  1.0000
  As  As32      1.0  0.0022324329403926053  0.009509044024328252  0.99995006694688  1.0000
  As  As33      1.0  0.0051501236589661685  0.005425796608133025  0.00010374804675763652  1.0000
  As  As34      1.0  0.007980296652814777  0.000490956047061192  0.9999665309820953  1.0000
  As  As35      1.0  0.00312805671489127  0.0005435076452341839  0.9998031890201367  1.0000
  As  As36      1.0  0.00021513222845510072  0.005314223264570947  0.9999380006355079  1.0000
  As  As37      1.0  0.00683653769257567  0.006052340667786863  0.9999534198610754  1.0000
  As  As38      1.0  0.009491457173454516  0.0011500388495087226  0.9998147866586561  1.0000
  As  As39      1.0  0.004705379412444363  0.001176805538084682  0.9999879740870536  1.0000
  As  As40      1.0  0.001472190226448275  0.005825027274807298  0.00014684292254291733  1.0000
  As  As41      1.0  0.008916678985385625  0.006798695368144764  0.00011056848418643411  1.0000
  As  As42      1.0  0.000453520349201951  0.002142163029509368  1.6642852530788444e-05  1.0000
  As  As43      1.0  0.005563027746587088  0.002198397365341985  0.9998664357012842  1.0000
  As  As44      1.0  0.0032042174160733555  0.007060751740069298  0.9998986369026721  1.0000
  As  As45      1.0  0.004491457890652787  0.007816705360627658  0.9997510494306787  1.0000
  As  As46      1.0  0.007216006656076657  0.0028473545763171744  3.975479465104596e-05  1.0000
  As  As47      1.0  0.0020690664107132655  0.00283339062690279  0.9998828445071793  1.0000
  As  As48      1.0  0.00978486818560274  0.007569192237339444  0.9999626045775937  1.0000
