data_image0
_chemical_formula_structural       HAl36Ir12
_chemical_formula_sum              "H1 Al36 Ir12"
_cell_length_a       8.94100157325448
_cell_length_b       10.827795023692106
_cell_length_c       99.3808364868164
_cell_angle_alpha    83.98852563006854
_cell_angle_beta     86.79930690761967
_cell_angle_gamma    69.87049178637278

_space_group_name_H-M_alt    "P 1"
_space_group_IT_number       1

loop_
  _space_group_symop_operation_xyz
  'x, y, z'

loop_
  _atom_site_type_symbol
  _atom_site_label
  _atom_site_symmetry_multiplicity
  _atom_site_fract_x
  _atom_site_fract_y
  _atom_site_fract_z
  _atom_site_occupancy
  H   H1        1.0  0.004538623366724796  0.004852691019599838  0.9998869667548083  1.0000
  Al  Al1       1.0  0.0020050591107104916  0.009083727700224628  0.9999302571811078  1.0000
  Al  Al2       1.0  0.005986544926035811  0.005781689365650377  0.9997994942483656  1.0000
  Al  Al3       1.0  0.009820693051217536  0.002470669542619107  0.9996446172907251  1.0000
  Al  Al4       1.0  0.00899542563538898  0.0075069420979686705  0.9998691575539276  1.0000
  Al  Al5       1.0  0.003178187540362034  0.004235811770274163  0.9997244870623316  1.0000
  Al  Al6       1.0  0.006725455408974708  0.0008040028219841516  0.9995742268825336  1.0000
  Al  Al7       1.0  0.0018092841598860634  0.007013394984194317  0.9996896505515632  1.0000
  Al  Al8       1.0  0.0057199972316227185  0.0035959354065995203  0.9995513616008697  1.0000
  Al  Al9       1.0  0.008012999597639282  0.0003311943416698522  0.999840496013325  1.0000
  Al  Al10      1.0  0.0029722214841107577  0.00074749402213382  0.9997244437279859  1.0000
  Al  Al11      1.0  0.006751742834322071  0.0074848244214144165  0.9995748249744704  1.0000
  Al  Al12      1.0  0.009125793423042943  0.004087241241876968  0.9998645108637905  1.0000
  Al  Al13      1.0  0.0007539810941375073  0.00973739725458331  0.9996696838083076  1.0000
  Al  Al14      1.0  0.003058827604895688  0.006364700324808244  0.9999384063779544  1.0000
  Al  Al15      1.0  0.006990588482851304  0.0029990883887646928  0.9998154498849476  1.0000
  Al  Al16      1.0  0.009794405777553859  0.00578984789903297  0.9996440195104055  1.0000
  Al  Al17      1.0  0.002193238452833952  0.002626459372193453  0.999899396824549  1.0000
  Al  Al18      1.0  0.005975574720422628  0.009157590171943675  0.9997894799842224  1.0000
  Al  Al19      1.0  0.0036302171594195503  0.009137335873210521  0.9995038367918712  1.0000
  Al  Al20      1.0  0.007439741222948176  0.005804002799906216  0.9993630561365  1.0000
  Al  Al21      1.0  0.0012492650282448815  0.002470669542619107  0.99922227592235  1.0000
  Al  Al22      1.0  0.0005349793659551018  0.007470669520541171  0.9994334463802408  1.0000
  Al  Al23      1.0  0.004344503163401935  0.00413733607927126  0.9992926660302848  1.0000
  Al  Al24      1.0  0.008154026885237956  0.0008040028219841516  0.9991518856786092  1.0000
  Al  Al25      1.0  0.0033390446443573403  0.0069292684799038265  0.9992698004525565  1.0000
  Al  Al26      1.0  0.007148568707885967  0.0035959354065995203  0.9991290200970653  1.0000
  Al  Al27      1.0  0.009529520536155325  0.00026260214931241184  0.9994105809514103  1.0000
  Al  Al28      1.0  0.004370790474871016  0.0008181576308659959  0.9992932638114641  1.0000
  Al  Al29      1.0  0.008180314310585319  0.0074848244214144165  0.9991524834706659  1.0000
  Al  Al30      1.0  0.0005612669238812965  0.004151490980144505  0.9994340441612318  1.0000
  Al  Al31      1.0  0.0022547233572805594  0.009678736913847866  0.999245141515631  1.0000
  Al  Al32      1.0  0.0046356760957675614  0.006345403472577955  0.9995267020676233  1.0000
  Al  Al33      1.0  0.008445199400300165  0.0030120702152908467  0.999385921718044  1.0000
  Al  Al34      1.0  0.00122297733727779  0.00578984789903297  0.9992216781441265  1.0000
  Al  Al35      1.0  0.0036039300001539805  0.0024565146417458617  0.9995032389942793  1.0000
  Al  Al36      1.0  0.007413454024895313  0.009123180972337276  0.9993624583578999  1.0000
  Ir  Ir1       1.0  0.0039642020255096335  0.008056754832324492  0.9997335104589623  1.0000
  Ir  Ir2       1.0  0.007757201087284873  0.004692891652816246  0.9995976902578538  1.0000
  Ir  Ir3       1.0  0.00017930642029312282  0.0013826358183712827  0.999864664657501  1.0000
  Ir  Ir4       1.0  0.008788947524591058  0.008581780667631142  0.999621153627262  1.0000
  Ir  Ir5       1.0  0.0010581059939657781  0.005310909755687794  0.9998769597094277  1.0000
  Ir  Ir6       1.0  0.005003699621414956  0.0018896904895291944  0.9997528745085479  1.0000
  Ir  Ir7       1.0  0.005376249334626326  0.008026224726120551  0.9993161294052282  1.0000
  Ir  Ir8       1.0  0.00918577256354812  0.004692891652816246  0.9991753490539294  1.0000
  Ir  Ir9       1.0  0.0015667253098849943  0.0013595583955291366  0.9994569097417276  1.0000
  Ir  Ir10      1.0  0.00021751866701157291  0.008581780667631142  0.9991988125629593  1.0000
  Ir  Ir11      1.0  0.002598471405498574  0.005248447226361231  0.9994803734148315  1.0000
  Ir  Ir12      1.0  0.00640799471003118  0.001915113969074122  0.9993395927653722  1.0000
