data_image0
_chemical_formula_structural       HV3Si6V3Si6
_chemical_formula_sum              "H1 V6 Si12"
_cell_length_a       4.582764252983845
_cell_length_b       6.396969795227051
_cell_length_c       106.66211700439453
_cell_angle_alpha    90.0
_cell_angle_beta     119.99999924733646
_cell_angle_gamma    90.0

_space_group_name_H-M_alt    "P 1"
_space_group_IT_number       1

loop_
  _space_group_symop_operation_xyz
  'x, y, z'

loop_
  _atom_site_type_symbol
  _atom_site_label
  _atom_site_symmetry_multiplicity
  _atom_site_fract_x
  _atom_site_fract_y
  _atom_site_fract_z
  _atom_site_occupancy
  H   H1        1.0  0.009858930548164028  0.0034167415152476055  0.00024503414835229674  1.0000
  V   V1        1.0  0.00514106900128575  0.0016579375895145422  0.9995755808136109  1.0000
  V   V2        1.0  0.00514106900128575  0.008324604337710536  0.999360754368788  1.0000
  V   V3        1.0  0.0001410689021412354  0.004991270818024455  0.9993607546125378  1.0000
  Si  Si1       1.0  0.006884114518332077  0.004991270818024455  0.9995056126416405  1.0000
  Si  Si2       1.0  0.00851259168471721  0.008324604337710536  0.999645548654038  1.0000
  Si  Si3       1.0  0.00851259168471721  0.0016579375895145422  0.9994356448315161  1.0000
  Si  Si4       1.0  0.0033980230149162757  0.004991270818024455  0.9996455484166814  1.0000
  Si  Si5       1.0  0.00176954596586193  0.008324604337710536  0.9995056126862133  1.0000
  Si  Si6       1.0  0.00176954596586193  0.0016579375895145422  0.9997155165087351  1.0000
  V   V4        1.0  0.0050910391538354464  0.001657798552894513  9.046578797539566e-07  1.0000
  V   V5        1.0  0.00514106900128575  0.008324604337710536  0.9997904066996163  1.0000
  V   V6        1.0  0.0001410689021412354  0.004991270818024455  0.9997904072227747  1.0000
  Si  Si7       1.0  0.006923566760699501  0.004973611565811814  0.9999360784222676  1.0000
  Si  Si8       1.0  0.008264239016471695  0.008139029613165986  8.146173751530532e-05  1.0000
  Si  Si9       1.0  0.008485295850498545  0.0016580737143728954  0.9998629010461363  1.0000
  Si  Si10      1.0  0.0037922643140255743  0.00517586078477018  8.146778551208054e-05  1.0000
  Si  Si11      1.0  0.0017494314797742298  0.008342377730980876  0.9999359994363959  1.0000
  Si  Si12      1.0  0.0015614193365221475  0.0016576225369011983  0.00012733864530994101  1.0000
