data_image0
_chemical_formula_structural       HAs24
_chemical_formula_sum              "H1 As24"
_cell_length_a       7.713961601257324
_cell_length_b       7.713961574038682
_cell_length_c       102.09233093261719
_cell_angle_alpha    90.0
_cell_angle_beta     90.0
_cell_angle_gamma    120.00000011672154

_space_group_name_H-M_alt    "P 1"
_space_group_IT_number       1

loop_
  _space_group_symop_operation_xyz
  'x, y, z'

loop_
  _atom_site_type_symbol
  _atom_site_label
  _atom_site_symmetry_multiplicity
  _atom_site_fract_x
  _atom_site_fract_y
  _atom_site_fract_z
  _atom_site_occupancy
  H   H1        1.0  0.004999984594405548  0.0016666435823304304  0.00012068015668859702  1.0000
  As  As1       1.0  0.0008333560432739359  0.0008333716300222355  0.9998696638661099  1.0000
  As  As2       1.0  0.0024999847536852026  0.004166643599059557  0.0  1.0000
  As  As3       1.0  0.004166666605326535  0.0024999998773197365  0.9991282708838978  1.0000
  As  As4       1.0  0.0008333333477389703  0.0008333333621446073  0.9992553781416822  1.0000
  As  As5       1.0  0.0024999999279494657  0.004166666462199561  0.9994775444344729  1.0000
  As  As6       1.0  0.004166666605326535  0.0024999998773197365  0.9996046514003419  1.0000
  As  As7       1.0  0.000833356190073794  0.005833371802889879  0.9998696638661099  1.0000
  As  As8       1.0  0.002499984860963384  0.009166643632517811  0.0  1.0000
  As  As9       1.0  0.004166666561689625  0.00749999991077799  0.9991282708838978  1.0000
  As  As10      1.0  0.0008333333296157493  0.005833333325898166  0.9992553781416822  1.0000
  As  As11      1.0  0.002499999914495573  0.009166666495657814  0.9994775444344729  1.0000
  As  As12      1.0  0.004166666561689625  0.00749999991077799  0.9996046514003419  1.0000
  As  As13      1.0  0.005833355862175826  0.0008333716300222355  0.9998696638661099  1.0000
  As  As14      1.0  0.007499984602770112  0.004166643599059557  0.0  1.0000
  As  As15      1.0  0.009166666605326536  0.0024999998773197365  0.9991282708838978  1.0000
  As  As16      1.0  0.005833333347738971  0.0008333333621446073  0.9992553781416822  1.0000
  As  As17      1.0  0.007499999897766447  0.004166666462199561  0.9994775444344729  1.0000
  As  As18      1.0  0.009166666605326536  0.0024999998773197365  0.9996046514003419  1.0000
  As  As19      1.0  0.0058333559486096484  0.005833371802889879  0.9998696638661099  1.0000
  As  As20      1.0  0.007499984619499239  0.009166643632517811  0.0  1.0000
  As  As21      1.0  0.00916666662205566  0.00749999991077799  0.9991282708838978  1.0000
  As  As22      1.0  0.00583333332961575  0.005833333325898166  0.9992553781416822  1.0000
  As  As23      1.0  0.007499999914495573  0.009166666495657814  0.9994775444344729  1.0000
  As  As24      1.0  0.00916666662205566  0.00749999991077799  0.9996046514003419  1.0000
