data_image0
_chemical_formula_structural       COCa12Al8Ge8Ca12Al8Ge8
_chemical_formula_sum              "C1 O1 Ca24 Al16 Ge16"
_cell_length_a       37.96372277049136
_cell_length_b       4.613284587860107
_cell_length_c       99.1991195678711
_cell_angle_alpha    90.0
_cell_angle_beta     83.69183123230546
_cell_angle_gamma    90.0

_space_group_name_H-M_alt    "P 1"
_space_group_IT_number       1

loop_
  _space_group_symop_operation_xyz
  'x, y, z'

loop_
  _atom_site_type_symbol
  _atom_site_label
  _atom_site_symmetry_multiplicity
  _atom_site_fract_x
  _atom_site_fract_y
  _atom_site_fract_z
  _atom_site_occupancy
  C   C1        1.0  0.006929834228039127  0.0050000001938032765  0.9997055561283331  1.0000
  O   O1        1.0  0.006929834228039127  0.0050000001938032765  0.9998265245881977  1.0000
  Ca  Ca1       1.0  0.00016805204391768342  5.000000180291014e-11  0.9996026962098459  1.0000
  Ca  Ca2       1.0  0.005177323162834601  0.010000000387606553  0.9993988609004542  1.0000
  Ca  Ca3       1.0  0.0010982285073601057  5.000000180291014e-11  0.999355737074707  1.0000
  Ca  Ca4       1.0  0.006146719976816942  5.000000180291014e-11  0.9995601540930762  1.0000
  Ca  Ca5       1.0  0.0017043218217994956  0.0050000001938032765  0.9995338254752688  1.0000
  Ca  Ca6       1.0  0.0067414993619401955  0.0050000001938032765  0.9993286881228003  1.0000
  Ca  Ca7       1.0  0.00266986380433264  0.0050000001938032765  0.9992896501302243  1.0000
  Ca  Ca8       1.0  0.0076315474234171544  0.0050000001938032765  0.9995051896786737  1.0000
  Ca  Ca9       1.0  0.0036255180444859565  0.0050000001938032765  0.9994497708941583  1.0000
  Ca  Ca10      1.0  0.00863375463241629  0.0050000001938032765  0.9996369523742754  1.0000
  Ca  Ca11      1.0  0.004255011644983181  0.010000000387606553  0.999647284681748  1.0000
  Ca  Ca12      1.0  0.009247887352545659  5.000000180291014e-11  0.9994326347571829  1.0000
  Al  Al1       1.0  0.0023106299626803506  5.000000180291014e-11  0.9995229143814036  1.0000
  Al  Al2       1.0  0.007329292148897268  5.000000180291014e-11  0.9993039715556973  1.0000
  Al  Al3       1.0  0.0005046941480885603  0.0050000001938032765  0.9993808909536636  1.0000
  Al  Al4       1.0  0.005536526004715466  0.0050000001938032765  0.9996004038758635  1.0000
  Al  Al5       1.0  0.004860496021237388  0.0050000001938032765  0.9996416867698782  1.0000
  Al  Al6       1.0  0.009831947530082274  0.0050000001938032765  0.9994091657039179  1.0000
  Al  Al7       1.0  0.0029931973438151113  1.4999999939228485e-10  0.999499080117471  1.0000
  Al  Al8       1.0  0.008010435712505003  5.000000180291014e-11  0.9992753296074287  1.0000
  Ge  Ge1       1.0  0.0019393942732173805  5.000000180291014e-11  0.999320366225391  1.0000
  Ge  Ge2       1.0  0.006980268684188552  5.000000180291014e-11  0.9995298887774638  1.0000
  Ge  Ge3       1.0  0.0008585325486321571  0.0050000001938032765  0.9995744685982123  1.0000
  Ge  Ge4       1.0  0.005900333398632147  0.0050000001938032765  0.9993640589804191  1.0000
  Ge  Ge5       1.0  0.004491608218920983  0.0050000001938032765  0.9994378549925163  1.0000
  Ge  Ge6       1.0  0.009464319463700195  0.0050000001938032765  0.999631462754388  1.0000
  Ge  Ge7       1.0  0.0034771215463237585  1.4999999939228485e-10  0.9996405478337397  1.0000
  Ge  Ge8       1.0  0.00834500262138806  0.010000000387606553  0.9994846844013168  1.0000
  Ca  Ca13      1.0  0.00016986385221445246  5.000000180291014e-11  0.9991845257810509  1.0000
  Ca  Ca14      1.0  0.0051698638675168876  5.000000180291014e-11  0.9989742767976755  1.0000
  Ca  Ca15      1.0  0.0010982285073601057  5.000000180291014e-11  0.9989352393976553  1.0000
  Ca  Ca16      1.0  0.006098228436277827  5.000000180291014e-11  0.9991454880949642  1.0000
  Ca  Ca17      1.0  0.0017414992355717003  0.0050000001938032765  0.9991184388329356  1.0000
  Ca  Ca18      1.0  0.0067414993619401955  0.0050000001938032765  0.9989081898448899  1.0000
  Ca  Ca19      1.0  0.00266986380433264  0.0050000001938032765  0.9988691524531724  1.0000
  Ca  Ca20      1.0  0.007669863930701135  0.0050000001938032765  0.9990794011421785  1.0000
  Ca  Ca21      1.0  0.0035982283730935797  0.0050000001938032765  0.9990403637504611  1.0000
  Ca  Ca22      1.0  0.008598228499462075  0.0050000001938032765  0.9992506130403258  1.0000
  Ca  Ca23      1.0  0.004241499298755948  5.000000180291014e-11  0.9992235631774387  1.0000
  Ca  Ca24      1.0  0.009241499425124443  5.000000180291014e-11  0.999013314189393  1.0000
  Al  Al9       1.0  0.0023292922199795465  5.000000180291014e-11  0.9990937222575299  1.0000
  Al  Al10      1.0  0.007329292148897268  5.000000180291014e-11  0.9988834732777869  1.0000
  Al  Al11      1.0  0.0005104355229522592  0.0050000001938032765  0.9989599559730611  1.0000
  Al  Al12      1.0  0.0055104356493207544  0.0050000001938032765  0.9991702046620671  1.0000
  Al  Al13      1.0  0.004829292085713021  0.0050000001938032765  0.9991988466103356  1.0000
  Al  Al14      1.0  0.009829292212081515  0.0050000001938032765  0.99898859762229  1.0000
  Al  Al15      1.0  0.0030104355861365066  5.000000180291014e-11  0.999065080317564  1.0000
  Al  Al16      1.0  0.008010435712505003  5.000000180291014e-11  0.9988548313295184  1.0000
  Ge  Ge9       1.0  0.0019393942732173805  5.000000180291014e-11  0.9988998685483392  1.0000
  Ge  Ge10      1.0  0.006939394004684329  5.000000180291014e-11  0.9991101172539508  1.0000
  Ge  Ge11      1.0  0.0009003334697144255  0.0050000001938032765  0.9991538096822518  1.0000
  Ge  Ge12      1.0  0.005900333398632147  0.0050000001938032765  0.9989435607025088  1.0000
  Ge  Ge13      1.0  0.004439394336401628  0.0050000001938032765  0.9990049928928423  1.0000
  Ge  Ge14      1.0  0.009439394067868576  0.0050000001938032765  0.9992152421993125  1.0000
  Ge  Ge15      1.0  0.0034003333354478997  5.000000180291014e-11  0.9992589340350575  1.0000
  Ge  Ge16      1.0  0.008400333066914848  5.000000180291014e-11  0.9990486850636173  1.0000
