data_image0
_chemical_formula_structural       COCa16
_chemical_formula_sum              "C1 O1 Ca16"
_cell_length_a       7.92101526260376
_cell_length_b       7.921015173893309
_cell_length_c       109.3426513671875
_cell_angle_alpha    90.0
_cell_angle_beta     90.0
_cell_angle_gamma    120.00000037047248

_space_group_name_H-M_alt    "P 1"
_space_group_IT_number       1

loop_
  _space_group_symop_operation_xyz
  'x, y, z'

loop_
  _atom_site_type_symbol
  _atom_site_label
  _atom_site_symmetry_multiplicity
  _atom_site_fract_x
  _atom_site_fract_y
  _atom_site_fract_z
  _atom_site_occupancy
  C   C1        1.0  0.0012499782461002508  0.0041666545564054995  0.00015840583257045892  1.0000
  O   O1        1.0  0.0012499782461002508  0.0041666545564054995  0.0002681527992723853  1.0000
  Ca  Ca1       1.0  0.0020833552154433366  0.003333345584790371  0.9991088773836047  1.0000
  Ca  Ca2       1.0  0.0037500219104126976  0.0016666789018318726  0.9994087197987198  1.0000
  Ca  Ca3       1.0  0.0020833552154433366  0.003333345584790371  0.9997085619412759  1.0000
  Ca  Ca4       1.0  0.003749978249010507  0.001666654599850383  0.0  1.0000
  Ca  Ca5       1.0  0.0020833550767617626  0.008333345497900605  0.9991088773836047  1.0000
  Ca  Ca6       1.0  0.0037500219459849727  0.006666679222237886  0.9994087197987198  1.0000
  Ca  Ca7       1.0  0.0020833550767617626  0.008333345497900605  0.9997085619412759  1.0000
  Ca  Ca8       1.0  0.003749978363670354  0.006666654784491136  0.0  1.0000
  Ca  Ca9       1.0  0.007083355317734597  0.003333345584790371  0.9991088773836047  1.0000
  Ca  Ca10      1.0  0.008750021806945675  0.0016666789018318726  0.9994087197987198  1.0000
  Ca  Ca11      1.0  0.007083355317734597  0.003333345584790371  0.9997085619412759  1.0000
  Ca  Ca12      1.0  0.008749978615848131  0.001666654599850383  0.0  1.0000
  Ca  Ca13      1.0  0.007083355208447064  0.008333345497900605  0.9991088773836047  1.0000
  Ca  Ca14      1.0  0.008750022136458355  0.006666679222237886  0.9994087197987198  1.0000
  Ca  Ca15      1.0  0.007083355208447064  0.008333345497900605  0.9997085619412759  1.0000
  Ca  Ca16      1.0  0.008749978407173533  0.006666654784491136  0.0  1.0000
