data_image0
_chemical_formula_structural       COSi12Mo20Si12Mo20
_chemical_formula_sum              "C1 O1 Si24 Mo40"
_cell_length_a       9.699454307556152
_cell_length_b       9.699454307556152
_cell_length_c       104.57659149169922
_cell_angle_alpha    90.0
_cell_angle_beta     90.0
_cell_angle_gamma    90.0

_space_group_name_H-M_alt    "P 1"
_space_group_IT_number       1

loop_
  _space_group_symop_operation_xyz
  'x, y, z'

loop_
  _atom_site_type_symbol
  _atom_site_label
  _atom_site_symmetry_multiplicity
  _atom_site_fract_x
  _atom_site_fract_y
  _atom_site_fract_z
  _atom_site_occupancy
  C   C1        1.0  0.002722233711100558  0.004634300245732436  8.69909640745067e-05  1.0000
  O   O1        1.0  0.002722233711100558  0.004634300245732436  0.00020173905963662676  1.0000
  Si  Si1       1.0  0.0029778896113951815  0.00324222995917651  0.9998926066893397  1.0000
  Si  Si2       1.0  0.0028931054915926914  0.0066736507883249935  0.9996509754451045  1.0000
  Si  Si3       1.0  0.009545929007242925  0.0033264742655680114  0.9996509754451045  1.0000
  Si  Si4       1.0  0.009461821046465726  0.006758188141769205  0.9998925838908743  1.0000
  Si  Si5       1.0  0.0012195201107553478  1.3120001091414836e-07  0.9997674117670211  1.0000
  Si  Si6       1.0  0.0012194568348681471  1.533000064364912e-07  0.0  1.0000
  Si  Si7       1.0  0.00789310599088649  0.008326474572825735  0.9996509754451045  1.0000
  Si  Si8       1.0  0.007978092708749667  0.0017581486591518804  0.9998926254980736  1.0000
  Si  Si9       1.0  0.004461672487356959  0.008241818157014105  0.9998926044094931  1.0000
  Si  Si10      1.0  0.004545928699985203  0.001673650865139424  0.9996509754451045  1.0000
  Si  Si11      1.0  0.006219446676159702  0.0049999991550412634  0.9999999988600767  1.0000
  Si  Si12      1.0  0.006219526179095365  0.005000011061278006  0.9997674163267142  1.0000
  Mo  Mo1       1.0  0.0018801040500623612  0.007748899187758066  0.9998807474976587  1.0000
  Mo  Mo2       1.0  0.0005593813590826366  0.002251601872772689  0.9998807486375819  1.0000
  Mo  Mo3       1.0  0.003980140489291946  0.004234616711968745  0.9996509754451045  1.0000
  Mo  Mo4       1.0  0.008458894201579747  0.00576550834192426  0.9996509754451045  1.0000
  Mo  Mo5       1.0  0.008470556936576598  0.004339913549352719  0.9998807571870064  1.0000
  Mo  Mo6       1.0  0.0019849628531558813  0.002239439075832681  0.9996509754451045  1.0000
  Mo  Mo7       1.0  0.0004540713672274243  0.007760686362132477  0.9996509754451045  1.0000
  Mo  Mo8       1.0  0.003968708197586872  0.005660476898397983  0.9998807417980423  1.0000
  Mo  Mo9       1.0  0.0012201037083917738  0.0050001938796228156  0.9999907483827863  1.0000
  Mo  Mo10      1.0  0.0012192205344760372  0.005000188886684827  0.999774027311686  1.0000
  Mo  Mo11      1.0  0.006984962776341451  0.0027606858628386782  0.9996509754451045  1.0000
  Mo  Mo12      1.0  0.005454071530458089  0.007239438999018251  0.9996509754451045  1.0000
  Mo  Mo13      1.0  0.00896877149267768  0.009339757539244186  0.9998807412280807  1.0000
  Mo  Mo14      1.0  0.0034704913370528726  0.0006601573311631106  0.9998807549071599  1.0000
  Mo  Mo15      1.0  0.003458893894322025  0.009234617019226468  0.9996509754451045  1.0000
  Mo  Mo16      1.0  0.006880008147245767  0.007251202360919178  0.9998807497775052  1.0000
  Mo  Mo17      1.0  0.005559471299179057  0.0027485964236798857  0.9998807492075436  1.0000
  Mo  Mo18      1.0  0.00898014079654967  0.0007655081306845752  0.9996509754451045  1.0000
  Mo  Mo19      1.0  0.006219036871172491  0.009999938394826666  0.9997739731653309  1.0000
  Mo  Mo20      1.0  0.006220104207685573  0.009999924568229158  0.9999908082287576  1.0000
  Si  Si13      1.0  0.0028931054915926914  0.0033264742655680114  0.9994148081380563  1.0000
  Si  Si14      1.0  0.0028931054915926914  0.0066736507883249935  0.999178640831008  1.0000
  Si  Si15      1.0  0.009545929007242925  0.0033264742655680114  0.999178640831008  1.0000
  Si  Si16      1.0  0.009545929007242925  0.0066736507883249935  0.9994148081380563  1.0000
  Si  Si17      1.0  0.0012195171341961623  6.24000039044295e-08  0.9992967246270226  1.0000
  Si  Si18      1.0  0.0012195171341961623  6.24000039044295e-08  0.9995328919340708  1.0000
  Si  Si19      1.0  0.00789310599088649  0.008326474572825735  0.999178640831008  1.0000
  Si  Si20      1.0  0.00789310599088649  0.001673650865139424  0.9994148081380563  1.0000
  Si  Si21      1.0  0.004545928699985203  0.008326474572825735  0.9994148081380563  1.0000
  Si  Si22      1.0  0.004545928699985203  0.001673650865139424  0.999178640831008  1.0000
  Si  Si23      1.0  0.0062195173454358465  0.0050000625269465025  0.9995328919340708  1.0000
  Si  Si24      1.0  0.0062195173454358465  0.0050000625269465025  0.9992967246270226  1.0000
  Mo  Mo21      1.0  0.0019849628531558813  0.007760686362132477  0.9994148081380563  1.0000
  Mo  Mo22      1.0  0.0004540713672274243  0.002239439075832681  0.9994148081380563  1.0000
  Mo  Mo23      1.0  0.003980140489291946  0.004234616711968745  0.999178640831008  1.0000
  Mo  Mo24      1.0  0.008458894201579747  0.00576550834192426  0.999178640831008  1.0000
  Mo  Mo25      1.0  0.008458894201579747  0.004234616711968745  0.9994148081380563  1.0000
  Mo  Mo26      1.0  0.0019849628531558813  0.002239439075832681  0.999178640831008  1.0000
  Mo  Mo27      1.0  0.0004540713672274243  0.007760686362132477  0.999178640831008  1.0000
  Mo  Mo28      1.0  0.003980140489291946  0.00576550834192426  0.9994148081380563  1.0000
  Mo  Mo29      1.0  0.0012195171341961623  0.0050000625269465025  0.9995328919340708  1.0000
  Mo  Mo30      1.0  0.0012195171341961623  0.0050000625269465025  0.9992967246270226  1.0000
  Mo  Mo31      1.0  0.006984962776341451  0.0027606858628386782  0.999178640831008  1.0000
  Mo  Mo32      1.0  0.005454071530458089  0.007239438999018251  0.999178640831008  1.0000
  Mo  Mo33      1.0  0.00898014079654967  0.009234617019226468  0.9994148081380563  1.0000
  Mo  Mo34      1.0  0.003458893894322025  0.0007655081306845752  0.9994148081380563  1.0000
  Mo  Mo35      1.0  0.003458893894322025  0.009234617019226468  0.999178640831008  1.0000
  Mo  Mo36      1.0  0.006984962776341451  0.007239438999018251  0.9994148081380563  1.0000
  Mo  Mo37      1.0  0.005454071530458089  0.0027606858628386782  0.9994148081380563  1.0000
  Mo  Mo38      1.0  0.00898014079654967  0.0007655081306845752  0.999178640831008  1.0000
  Mo  Mo39      1.0  0.0062195173454358465  6.24000039044295e-08  0.9992967246270226  1.0000
  Mo  Mo40      1.0  0.0062195173454358465  6.24000039044295e-08  0.9995328919340708  1.0000
