data_image0
_chemical_formula_structural       COSi6Pt12
_chemical_formula_sum              "C1 O1 Si6 Pt12"
_cell_length_a       7.219199990584585
_cell_length_b       5.653794288635254
_cell_length_c       103.00897979736328
_cell_angle_alpha    90.0
_cell_angle_beta     109.77064746712423
_cell_angle_gamma    66.94712834912146

_space_group_name_H-M_alt    "P 1"
_space_group_IT_number       1

loop_
  _space_group_symop_operation_xyz
  'x, y, z'

loop_
  _atom_site_type_symbol
  _atom_site_label
  _atom_site_symmetry_multiplicity
  _atom_site_fract_x
  _atom_site_fract_y
  _atom_site_fract_z
  _atom_site_occupancy
  C   C1        1.0  0.004364032940705576  0.006567983582359287  0.00015355573988130086  1.0000
  O   O1        1.0  0.004364032940705576  0.006567983582359287  0.0002700506740346263  1.0000
  Si  Si1       1.0  0.001666666668676781  0.00041666670849016974  0.9998392299084184  1.0000
  Si  Si2       1.0  0.00500000015678892  0.003750000053385726  0.9993051508616564  1.0000
  Si  Si3       1.0  0.008333333494142482  0.007083333885473649  0.9995721905316262  1.0000
  Si  Si4       1.0  0.001666666668676781  0.00041666670849016974  0.9994386706929244  1.0000
  Si  Si5       1.0  0.00500000015678892  0.003750000053385726  0.9997057103664682  1.0000
  Si  Si6       1.0  0.008333333494142482  0.007083333885473649  0.9999727500364379  1.0000
  Pt  Pt1       1.0  0.001666666668676781  0.007916666718373684  0.9996389503006714  1.0000
  Pt  Pt2       1.0  0.00500000015678892  0.0012499998030033733  0.9999059899742151  1.0000
  Pt  Pt3       1.0  0.008333333494142482  0.004583333305640833  0.9993719106345614  1.0000
  Pt  Pt4       1.0  0.001666666668676781  0.002916666876509906  0.9996389503006714  1.0000
  Pt  Pt5       1.0  0.00500000015678892  0.0062499999743176144  0.9999059899742151  1.0000
  Pt  Pt6       1.0  0.008333333494142482  0.00958333314750461  0.9993719106345614  1.0000
  Pt  Pt7       1.0  0.00500000015678892  0.0012499998030033733  0.9995054304694033  1.0000
  Pt  Pt8       1.0  0.008333333494142482  0.004583333305640833  0.9997724701393732  1.0000
  Pt  Pt9       1.0  0.001666666668676781  0.007916666718373684  3.951009480091544e-05  1.0000
  Pt  Pt10      1.0  0.00500000015678892  0.0062499999743176144  0.9995054304694033  1.0000
  Pt  Pt11      1.0  0.008333333494142482  0.00958333314750461  0.9997724701393732  1.0000
  Pt  Pt12      1.0  0.001666666668676781  0.002916666876509906  3.951009480091544e-05  1.0000
