data_image0
_chemical_formula_structural       COGe4Pt4Ge4Pt4
_chemical_formula_sum              "C1 O1 Ge8 Pt8"
_cell_length_a       5.9023919105529785
_cell_length_b       6.217412948608398
_cell_length_c       99.99728393554688
_cell_angle_alpha    90.0
_cell_angle_beta     90.0
_cell_angle_gamma    90.0

_space_group_name_H-M_alt    "P 1"
_space_group_IT_number       1

loop_
  _space_group_symop_operation_xyz
  'x, y, z'

loop_
  _atom_site_type_symbol
  _atom_site_label
  _atom_site_symmetry_multiplicity
  _atom_site_fract_x
  _atom_site_fract_y
  _atom_site_fract_z
  _atom_site_occupancy
  C   C1        1.0  0.009943482073098921  0.0019396077139795962  0.00014548339211178525  1.0000
  O   O1        1.0  0.009943482073098921  0.0019396077139795962  0.00026548689467121146  1.0000
  Ge  Ge1       1.0  0.008123429372438493  0.005808405963979979  0.9996195338147383  1.0000
  Ge  Ge2       1.0  0.0018765703814132945  0.004070461957084438  0.9994320455905518  1.0000
  Ge  Ge3       1.0  0.0031234295744062574  0.009070462017001487  0.9996195338147383  1.0000
  Ge  Ge4       1.0  0.006876570021658215  0.0008084055295813821  0.9994320455905518  1.0000
  Pt  Pt1       1.0  1.3847000308701889e-06  0.0018738932422485554  0.9996195338147383  1.0000
  Pt  Pt2       1.0  0.009998614854583615  0.008004974529023242  0.9994320455905518  1.0000
  Pt  Pt3       1.0  0.005001384539513095  0.003004974169520955  0.9996195338147383  1.0000
  Pt  Pt4       1.0  0.004998615056551378  0.006873893451958223  0.9994320455905518  1.0000
  Ge  Ge5       1.0  0.008198621970917773  0.005626220390432906  0.0  1.0000
  Ge  Ge6       1.0  0.001988102187589598  0.004131524918589508  0.9998048031957579  1.0000
  Ge  Ge7       1.0  0.0031986215417362748  0.009252648788889518  0.0  1.0000
  Ge  Ge8       1.0  0.0069880959897038455  0.0007473516305298162  0.9998048031957579  1.0000
  Pt  Pt5       1.0  0.009943482073098921  0.0019396077139795962  0.9999722741464306  1.0000
  Pt  Pt6       1.0  0.00010102119862232942  0.007901239544714798  0.9998129305098161  1.0000
  Pt  Pt7       1.0  0.004943488586559304  0.002939258349656335  0.999972273550368  1.0000
  Pt  Pt8       1.0  0.005101010188223454  0.006977623043732351  0.9998129308078474  1.0000
