data_image0
_chemical_formula_structural       HGa3Pt9Ga3Pt9
_chemical_formula_sum              "H1 Ga6 Pt18"
_cell_length_a       5.601060390472412
_cell_length_b       5.601060163415088
_cell_length_c       104.29934692382812
_cell_angle_alpha    90.0
_cell_angle_beta     90.0
_cell_angle_gamma    59.99999865900461

_space_group_name_H-M_alt    "P 1"
_space_group_IT_number       1

loop_
  _space_group_symop_operation_xyz
  'x, y, z'

loop_
  _atom_site_type_symbol
  _atom_site_label
  _atom_site_symmetry_multiplicity
  _atom_site_fract_x
  _atom_site_fract_y
  _atom_site_fract_z
  _atom_site_occupancy
  H   H1        1.0  0.006666662166927346  0.007499218855369125  0.00011812651619621609  1.0000
  Ga  Ga1       1.0  0.006666667665977245  0.007499221159358715  0.99890744944955  1.0000
  Ga  Ga2       1.0  1.6876088565089018e-09  0.0008325540306141358  0.9993459226491954  1.0000
  Ga  Ga3       1.0  0.003333334900715081  0.00416588735498751  0.9991266859065036  1.0000
  Pt  Pt1       1.0  0.008333334598882709  0.009165887293547788  0.9991266859065036  1.0000
  Pt  Pt2       1.0  0.0016666681598087503  0.002499220836800172  0.99890744944955  1.0000
  Pt  Pt3       1.0  0.005000001117070045  0.005832554257173113  0.9993459226491954  1.0000
  Pt  Pt4       1.0  0.008333334568162846  0.00416588735498751  0.9991266859065036  1.0000
  Pt  Pt5       1.0  0.001666667998529479  0.007499221159358715  0.99890744944955  1.0000
  Pt  Pt6       1.0  0.005000001562901768  0.0008325540306141358  0.9993459226491954  1.0000
  Pt  Pt7       1.0  0.0033333345988827076  0.009165887293547788  0.9991266859065036  1.0000
  Pt  Pt8       1.0  0.006666667827256515  0.002499220836800172  0.99890744944955  1.0000
  Pt  Pt9       1.0  1.4496222799556243e-09  0.005832554257173113  0.9993459226491954  1.0000
  Ga  Ga4       1.0  0.006666667665977245  0.007499221159358715  0.9995651588204106  1.0000
  Ga  Ga5       1.0  0.009999997712828054  0.0008325544146124009  2.269905383211599e-06  1.0000
  Ga  Ga6       1.0  0.003333335415175386  0.004165879675022207  0.9997851367683599  1.0000
  Pt  Pt10      1.0  0.008334892259509558  0.009167446326504252  0.9997823713926929  1.0000
  Pt  Pt11      1.0  0.0016666681598087503  0.002499220836800172  0.9995651588204106  1.0000
  Pt  Pt12      1.0  0.004987696209361866  0.005820252104752859  0.0  1.0000
  Pt  Pt13      1.0  0.008334891502913841  0.004162770825067643  0.9997823713926929  1.0000
  Pt  Pt14      1.0  0.001666667998529479  0.007499221159358715  0.9995651588204106  1.0000
  Pt  Pt15      1.0  0.004987696595973226  0.0008571513274863034  0.0  1.0000
  Pt  Pt16      1.0  0.0033302162939842514  0.00916744555850772  0.9997823713926929  1.0000
  Pt  Pt17      1.0  0.006666667827256515  0.002499220836800172  0.9995651588204106  1.0000
  Pt  Pt18      1.0  2.459573221269429e-05  0.005820251720754594  0.0  1.0000
