data_image0
_chemical_formula_structural       In20Pt20CO
_chemical_formula_sum              "In20 Pt20 C1 O1"
_cell_length_a       7.107274861012134
_cell_length_b       13.348962653559706
_cell_length_c       100.07862091064453
_cell_angle_alpha    82.27245645474254
_cell_angle_beta     84.45121090834158
_cell_angle_gamma    79.55808109073095

_space_group_name_H-M_alt    "P 1"
_space_group_IT_number       1

loop_
  _space_group_symop_operation_xyz
  'x, y, z'

loop_
  _atom_site_type_symbol
  _atom_site_label
  _atom_site_symmetry_multiplicity
  _atom_site_fract_x
  _atom_site_fract_y
  _atom_site_fract_z
  _atom_site_occupancy
  In  In1       1.0  0.0037228461916554503  0.007516779827271607  0.9998681253261559  1.0000
  In  In2       1.0  0.00819576655342374  0.0028218978268722502  0.999624236161225  1.0000
  In  In3       1.0  0.001945702436070958  0.009561705806304615  0.9996149540005552  1.0000
  In  In4       1.0  0.007736470551791795  0.004693468068280646  0.99980511090903  1.0000
  In  In5       1.0  0.004496780466113886  0.006178431197732701  0.9996266599389863  1.0000
  In  In6       1.0  0.00047224594908992453  0.0011958162262504677  0.9998664786865755  1.0000
  In  In7       1.0  0.0074454131982771244  0.00901276573943847  0.9997300480337673  1.0000
  In  In8       1.0  0.0016827602984192818  0.004168372779030755  0.9995049725141664  1.0000
  In  In9       1.0  0.009019805757110654  0.006604308009193821  0.9995102213219078  1.0000
  In  In10      1.0  0.004506967825190822  0.0018129453631797632  0.999734195089292  1.0000
  In  In11      1.0  0.002494140345926704  0.007886340582750897  0.999400257375966  1.0000
  In  In12      1.0  0.006779854552480951  0.002886340491289753  0.999185579101257  1.0000
  In  In13      1.0  0.0004950006074416059  0.009613660308995256  0.9991753494867304  1.0000
  In  In14      1.0  0.006209285971118133  0.004613659931718037  0.9993900279752941  1.0000
  In  In15      1.0  0.0030647084918360656  0.006159020856506539  0.9991958085100453  1.0000
  In  In16      1.0  0.008778993455454106  0.0011590209079534318  0.999410486993667  1.0000
  In  In17      1.0  0.005968474766224567  0.009168373156307974  0.9992902940863175  1.0000
  In  In18      1.0  0.00025418883749837976  0.004168372779030755  0.9990756154603168  1.0000
  In  In19      1.0  0.007591234954463921  0.006604308009193821  0.9990808639657488  1.0000
  In  In20      1.0  0.0033055201321830876  0.0016043079177326769  0.9992955426886947  1.0000
  Pt  Pt1       1.0  0.0011101424133897152  0.005425782583617802  0.9997097939211697  1.0000
  Pt  Pt2       1.0  0.0053512831148661765  0.00038634030265114394  0.9995075966927596  1.0000
  Pt  Pt3       1.0  0.007440676797413119  0.0067977700501850955  0.9997631979418105  1.0000
  Pt  Pt4       1.0  0.0016298681047692831  0.0016257809935658184  0.9995587666279827  1.0000
  Pt  Pt5       1.0  0.009030721891334  0.009069216700607287  0.9994529819809468  1.0000
  Pt  Pt6       1.0  0.004807125092167032  0.004088516625367692  0.999668177424079  1.0000
  Pt  Pt7       1.0  0.0009815296494022983  0.007618656108733691  0.9996848937649502  1.0000
  Pt  Pt8       1.0  0.00523155374169268  0.0026056016539028376  0.9994590574024594  1.0000
  Pt  Pt9       1.0  0.005385906622470694  0.008204380704340073  0.9995496017175278  1.0000
  Pt  Pt10      1.0  0.0010676644787536282  0.003260046723108192  0.9997599962684  1.0000
  Pt  Pt11      1.0  0.009636997364944734  0.005386340537020325  0.999292918268969  1.0000
  Pt  Pt12      1.0  0.003922711522290441  0.00038634030265114394  0.9990782399376031  1.0000
  Pt  Pt13      1.0  0.00595755863200122  0.006703464464894506  0.9993475331294895  1.0000
  Pt  Pt14      1.0  0.0002432730982395348  0.001703464087617288  0.9991328547985656  1.0000
  Pt  Pt15      1.0  0.007602150035448597  0.009069216700607287  0.9990236249298093  1.0000
  Pt  Pt16      1.0  0.003316436266406434  0.004069216609146144  0.9992383033477336  1.0000
  Pt  Pt17      1.0  0.009517267510734843  0.0076056017453639815  0.9992443786867461  1.0000
  Pt  Pt18      1.0  0.003802981885807277  0.0026056016539028376  0.999029700351322  1.0000
  Pt  Pt19      1.0  0.004042441156714975  0.008167079420137812  0.9991267793725528  1.0000
  Pt  Pt20      1.0  0.009756726257081834  0.0031670790428605946  0.9993414578629247  1.0000
  C   C1        1.0  0.00293739478546033  0.0036742816742379425  0.9999139301329392  1.0000
  O   O1        1.0  0.00293739478546033  0.0036742816742379425  3.38355093808361e-05  1.0000
