data_image0
_chemical_formula_structural       COGa15Ag30
_chemical_formula_sum              "C1 O1 Ga15 Ag30"
_cell_length_a       13.79183292388916
_cell_length_b       9.920864650411959
_cell_length_c       103.97871398925781
_cell_angle_alpha    99.69568334350778
_cell_angle_beta     90.0
_cell_angle_gamma    45.96542854997435

_space_group_name_H-M_alt    "P 1"
_space_group_IT_number       1

loop_
  _space_group_symop_operation_xyz
  'x, y, z'

loop_
  _atom_site_type_symbol
  _atom_site_label
  _atom_site_symmetry_multiplicity
  _atom_site_fract_x
  _atom_site_fract_y
  _atom_site_fract_z
  _atom_site_occupancy
  C   C1        1.0  0.00767404809458181  0.002921769875087784  5.852676146586607e-05  1.0000
  O   O1        1.0  0.00767404809458181  0.002921769875087784  0.00017393523170271483  1.0000
  Ga  Ga1       1.0  0.0072363352144919  0.002305531570285308  0.9996831944289628  1.0000
  Ga  Ga2       1.0  0.004937311118847004  0.006862684265272259  0.9998981561813887  1.0000
  Ga  Ga3       1.0  0.00923633499195802  0.008305531583179588  0.9995198019113191  1.0000
  Ga  Ga4       1.0  0.0030145748434904974  0.0007574617600153479  1.1851136846962282e-05  1.0000
  Ga  Ga5       1.0  0.001236335158321168  0.004305531574583401  0.999356409290147  1.0000
  Ga  Ga6       1.0  0.0005696686558686042  0.002305531570285308  0.9996831944289628  1.0000
  Ga  Ga7       1.0  0.008316627977727873  0.006862899169931613  0.9998977371575928  1.0000
  Ga  Ga8       1.0  0.002569668433334723  0.008305531583179588  0.9995198019113191  1.0000
  Ga  Ga9       1.0  0.006337537463682629  0.000764048856455344  1.227742479326844e-05  1.0000
  Ga  Ga10      1.0  0.004569668437632817  0.004305531574583401  0.999356409290147  1.0000
  Ga  Ga11      1.0  0.006903001444686991  0.006305531578881494  0.999438105600733  1.0000
  Ga  Ga12      1.0  0.00490300214028002  0.000305531700302627  0.9996014978339156  1.0000
  Ga  Ga13      1.0  0.008903001448985084  0.002305531570285308  0.9992747129795609  1.0000
  Ga  Ga14      1.0  0.0028647814486858266  0.004374326854135508  0.9997641174134967  1.0000
  Ga  Ga15      1.0  0.000911837407252163  0.00828774123821669  0.9999341090760936  1.0000
  Ag  Ag1       1.0  0.006680874973372425  0.003694468173978147  0.999456252496763  1.0000
  Ag  Ag2       1.0  0.004680875103389744  0.0076944679139435085  0.9996196451136183  1.0000
  Ag  Ag3       1.0  0.008680875156739985  0.009694468455503251  0.9992928596968164  1.0000
  Ag  Ag4       1.0  0.0026982538319662505  0.0016741379202744287  0.9997721931632916  1.0000
  Ag  Ag5       1.0  0.0007275693051436607  0.005699502051290762  0.9999434013244615  1.0000
  Ag  Ag6       1.0  0.009341315999327585  0.0014263159113020044  0.9998208136316014  1.0000
  Ag  Ag7       1.0  0.007371058119992514  0.005376674421057163  0.9999619722994074  1.0000
  Ag  Ag8       1.0  0.0012919388003853327  0.007527658380092002  0.9996469006369031  1.0000
  Ag  Ag9       1.0  0.00529193804193269  0.009527658384390096  0.9993201152114678  1.0000
  Ag  Ag10      1.0  0.0032919388046834253  0.003527658371495816  0.9994835080157309  1.0000
  Ag  Ag11      1.0  0.009736191861121759  0.003694468173978147  0.999456252496763  1.0000
  Ag  Ag12      1.0  0.007736191991139078  0.0076944679139435085  0.9996196451136183  1.0000
  Ag  Ag13      1.0  0.001736191936445948  0.009694468455503251  0.9992928596968164  1.0000
  Ag  Ag14      1.0  0.005724579937354791  0.001694746202583092  0.9997727025930238  1.0000
  Ag  Ag15      1.0  0.00367016143438744  0.005717915619765782  0.9999437247257227  1.0000
  Ag  Ag16      1.0  0.0007367076088321869  0.005027629496905785  0.9996469050911718  1.0000
  Ag  Ag17      1.0  0.008724561909813683  0.009070411113301037  0.9998269441370109  1.0000
  Ag  Ag18      1.0  0.002736707478814868  0.0010276297569404233  0.9994835124743164  1.0000
  Ag  Ag19      1.0  0.00659195570211647  0.003246871733878987  0.9999535490495691  1.0000
  Ag  Ag20      1.0  0.0047367076607048265  0.007027629501203878  0.999320119952356  1.0000
  Ag  Ag21      1.0  0.0076250996356402  0.004861335196975077  0.9996740763156149  1.0000
  Ag  Ag22      1.0  0.0056568728616038354  0.008814133546190954  0.9998423860964928  1.0000
  Ag  Ag23      1.0  0.009625099539201733  0.0008613353898520094  0.9995106839842997  1.0000
  Ag  Ag24      1.0  0.003633336165968233  0.0028392486349427958  0.9999870322805168  1.0000
  Ag  Ag25      1.0  0.0016250998495778936  0.0068613352012731705  0.999347291176799  1.0000
  Ag  Ag26      1.0  0.004347198605016268  0.005027629496905785  0.9996469050911718  1.0000
  Ag  Ag27      1.0  0.002322849919419178  0.009063074268230723  0.9998260775919622  1.0000
  Ag  Ag28      1.0  0.006347198474998948  0.0010276297569404233  0.9994835124743164  1.0000
  Ag  Ag29      1.0  0.00026380798791030035  0.003243847488060241  0.999952701358223  1.0000
  Ag  Ag30      1.0  0.008347198386780481  0.007027629501203878  0.999320119952356  1.0000
