data_image0
_chemical_formula_structural       COAl10Sb10
_chemical_formula_sum              "C1 O1 Al10 Sb10"
_cell_length_a       7.680716552152338
_cell_length_b       8.52125190037486
_cell_length_c       27.6791934967041
_cell_angle_alpha    105.07654455773633
_cell_angle_beta     111.28306901144863
_cell_angle_gamma    90.00000011930048

_space_group_name_H-M_alt    "P 1"
_space_group_IT_number       1

loop_
  _space_group_symop_operation_xyz
  'x, y, z'

loop_
  _atom_site_type_symbol
  _atom_site_label
  _atom_site_symmetry_multiplicity
  _atom_site_fract_x
  _atom_site_fract_y
  _atom_site_fract_z
  _atom_site_occupancy
  C   C1        1.0  0.000888217963183229  0.00930082924912159  0.001275998867499829  1.0000
  O   O1        1.0  0.000888217963183229  0.00930082924912159  0.0017095378511758806  1.0000
  Al  Al1       1.0  0.003791408319307588  0.009125774432630523  0.9985668380117478  1.0000
  Al  Al2       1.0  0.005823697337192044  0.0029532369082613257  0.0001338390471764536  1.0000
  Al  Al3       1.0  0.00979140883146389  0.001125774691226366  0.9993313259275778  1.0000
  Al  Al4       1.0  0.007791408463680329  0.007125774611098077  0.9978023503908504  1.0000
  Al  Al5       1.0  0.0017914084125887264  0.00512577433429126  0.9970378626707403  1.0000
  Al  Al6       1.0  0.005458074877003042  0.004125774651162222  0.9985668381008186  1.0000
  Al  Al7       1.0  0.007517722730113151  0.007957003174595405  0.0001340087523630216  1.0000
  Al  Al8       1.0  0.0014580750579545085  0.006125774472694669  0.9993313257544835  1.0000
  Al  Al9       1.0  0.009458075254173005  0.0021257746019925894  0.9978023504851408  1.0000
  Al  Al10      1.0  0.003458075117577702  0.00012577469509619823  0.9970378627860397  1.0000
  Sb  Sb1       1.0  0.004541924887087433  0.006874225050177792  0.999140598601209  1.0000
  Sb  Sb2       1.0  0.005424422445056069  0.0003757057840845929  0.0005764461363615906  1.0000
  Sb  Sb3       1.0  0.000989089636612358  0.009028821023821586  0.9999463404453437  1.0000
  Sb  Sb4       1.0  0.008541924771200807  0.004874225228645345  0.9983761109540976  1.0000
  Sb  Sb5       1.0  0.0025419248777010313  0.0028742251794757127  0.997611623268089  1.0000
  Sb  Sb6       1.0  0.004208591597518057  0.0078742251885812  0.9976116232059803  1.0000
  Sb  Sb7       1.0  0.006208591705042253  0.0018742252687094893  0.9991405987164937  1.0000
  Sb  Sb8       1.0  0.0002085915283507136  0.009874224554839276  0.998376111067172  1.0000
  Sb  Sb9       1.0  0.00907137800953814  0.005378402895469238  0.0005770196663353076  1.0000
  Sb  Sb10      1.0  0.00185404477909214  0.004036134314563966  0.9999475319261637  1.0000
