data_image0
_chemical_formula_structural       HFe15Pt5Fe15Pt5
_chemical_formula_sum              "H1 Fe30 Pt10"
_cell_length_a       5.118344306945801
_cell_length_b       8.092812685273847
_cell_length_c       107.61199188232422
_cell_angle_alpha    75.03678246959375
_cell_angle_beta     90.0
_cell_angle_gamma    71.56505060083013

_space_group_name_H-M_alt    "P 1"
_space_group_IT_number       1

loop_
  _space_group_symop_operation_xyz
  'x, y, z'

loop_
  _atom_site_type_symbol
  _atom_site_label
  _atom_site_symmetry_multiplicity
  _atom_site_fract_x
  _atom_site_fract_y
  _atom_site_fract_z
  _atom_site_occupancy
  H   H1        1.0  0.009679001093463277  0.009359940287350847  2.343116640591636e-05  1.0000
  Fe  Fe1       1.0  0.0003209978298682788  0.005500000169430088  0.9991168844037563  1.0000
  Fe  Fe2       1.0  0.008320996672167437  0.009500000476017866  0.999233389254194  1.0000
  Fe  Fe3       1.0  0.002320997920130141  0.0014999999889063634  0.9990003792739284  1.0000
  Fe  Fe4       1.0  0.00632099795018509  0.003500000016136199  0.9993498942302916  1.0000
  Fe  Fe5       1.0  0.004320997796891202  0.007500000322723976  0.9988838743002786  1.0000
  Fe  Fe6       1.0  0.009320997464470153  0.0024999999394892543  0.9991751368918051  1.0000
  Fe  Fe7       1.0  0.007320997311176264  0.006500000246077032  0.9992916417422428  1.0000
  Fe  Fe8       1.0  0.0013209978069031213  0.008499999895114707  0.9990586319254989  1.0000
  Fe  Fe9       1.0  0.0053209977510567455  0.0005000000068074589  0.9994081467140566  1.0000
  Fe  Fe10      1.0  0.0033209977080689034  0.004500000092783143  0.9989421267883274  1.0000
  Fe  Fe11      1.0  0.005320997873538146  0.005500000169430088  0.9991168844037563  1.0000
  Fe  Fe12      1.0  0.0033209977202442575  0.009500000476017866  0.999233389254194  1.0000
  Fe  Fe13      1.0  0.007320997963800009  0.0014999999889063634  0.9990003792739284  1.0000
  Fe  Fe14      1.0  0.0013209979065152233  0.003500000016136199  0.9993498942302916  1.0000
  Fe  Fe15      1.0  0.009320996748814382  0.007500000322723976  0.9988838743002786  1.0000
  Pt  Pt1       1.0  0.008320997387823208  0.004500000092783143  0.9989421267883274  1.0000
  Pt  Pt2       1.0  0.006320997486657425  0.008499999895114707  0.9990586319254989  1.0000
  Pt  Pt3       1.0  0.0003209977983657689  0.0005000000068074589  0.9994081467140566  1.0000
  Pt  Pt4       1.0  0.004320997784715848  0.0024999999394892543  0.9991751368918051  1.0000
  Pt  Pt5       1.0  0.0023209976314219594  0.006500000246077032  0.9992916417422428  1.0000
  Fe  Fe16      1.0  0.0003209978298682788  0.005500000169430088  0.9996994094611494  1.0000
  Fe  Fe17      1.0  0.008374315968188441  0.009495278620840378  0.9998153934016142  1.0000
  Fe  Fe18      1.0  0.002320997920130141  0.0014999999889063634  0.9995829040543791  1.0000
  Fe  Fe19      1.0  0.00651767476281458  0.0035139858143287636  0.9999205942358356  1.0000
  Fe  Fe20      1.0  0.004320997796891202  0.007500000322723976  0.9994663990807293  1.0000
  Fe  Fe21      1.0  0.009353972785422658  0.0024384264739739894  0.9997593410930435  1.0000
  Fe  Fe22      1.0  0.007403409731322358  0.006332434393765593  0.9998675674522509  1.0000
  Fe  Fe23      1.0  0.0013209978069031213  0.008499999895114707  0.999641156982892  1.0000
  Fe  Fe24      1.0  0.005297178413079566  0.0005960227125026044  0.9999763985702931  1.0000
  Fe  Fe25      1.0  0.0033209977080689034  0.004500000092783143  0.9995246515687781  1.0000
  Fe  Fe26      1.0  0.005320997873538146  0.005500000169430088  0.9996994094611494  1.0000
  Fe  Fe27      1.0  0.0032956280338558054  0.009490047466887874  0.9998157270552415  1.0000
  Fe  Fe28      1.0  0.007320997963800009  0.0014999999889063634  0.9995829040543791  1.0000
  Fe  Fe29      1.0  0.0011113784705859993  0.0035234519640852105  0.9999204037803071  1.0000
  Fe  Fe30      1.0  0.009320996748814382  0.007500000322723976  0.9994663990807293  1.0000
  Pt  Pt6       1.0  0.008320997387823208  0.004500000092783143  0.9995246515687781  1.0000
  Pt  Pt7       1.0  0.006320997486657425  0.008499999895114707  0.999641156982892  1.0000
  Pt  Pt8       1.0  0.00034559398697110743  0.0005007897035528554  0.9999898599511995  1.0000
  Pt  Pt9       1.0  0.004321702458520176  0.002498656096681907  0.9997538518372513  1.0000
  Pt  Pt10      1.0  0.0023492368028506724  0.0064414490401737134  0.9998759949655653  1.0000
