data_image0
_chemical_formula_structural       COAs4Ru2As4Ru2As4Ru2
_chemical_formula_sum              "C1 O1 As12 Ru6"
_cell_length_a       6.273108959197998
_cell_length_b       6.28868689734592
_cell_length_c       103.29071044921875
_cell_angle_alpha    118.76704648051668
_cell_angle_beta     90.0
_cell_angle_gamma    90.0

_space_group_name_H-M_alt    "P 1"
_space_group_IT_number       1

loop_
  _space_group_symop_operation_xyz
  'x, y, z'

loop_
  _atom_site_type_symbol
  _atom_site_label
  _atom_site_symmetry_multiplicity
  _atom_site_fract_x
  _atom_site_fract_y
  _atom_site_fract_z
  _atom_site_occupancy
  C   C1        1.0  0.006301825115161433  0.008126004185438638  0.0002380927225680627  1.0000
  O   O1        1.0  0.006301825115161433  0.008126004185438638  0.00035426991087963587  1.0000
  As  As1       1.0  0.0020202679898192895  0.006808171295519397  0.9995343013874856  1.0000
  As  As2       1.0  0.009326577649488285  0.003389755684485925  0.9994341414735689  1.0000
  As  As3       1.0  0.00702026809671242  0.008389755251985265  0.9994341415647668  1.0000
  As  As4       1.0  0.004326577542595155  0.0018081717280200571  0.9995343015848162  1.0000
  Ru  Ru1       1.0  0.005673422968116469  0.005098963827893802  0.9994842214404275  1.0000
  Ru  Ru2       1.0  0.0006734226385293162  9.896384858963374e-05  0.9994842216256922  1.0000
  As  As5       1.0  0.0020202679898192895  0.006808171295519397  0.9998273024526869  1.0000
  As  As6       1.0  0.009326577649488285  0.003389755684485925  0.9997271425387703  1.0000
  As  As7       1.0  0.00702026809671242  0.008389755251985265  0.9997271426299682  1.0000
  As  As8       1.0  0.004326577542595155  0.0018081717280200571  0.999827302361489  1.0000
  Ru  Ru3       1.0  0.005673422968116469  0.005098963827893802  0.9997772225056288  1.0000
  Ru  Ru4       1.0  0.0006734226385293162  9.896384858963374e-05  0.999777222402365  1.0000
  As  As9       1.0  0.0020648400497755228  0.006706020721668871  0.00011230885302148687  1.0000
  As  As10      1.0  0.00930359740801357  0.0033269809168166293  3.292606013173277e-05  1.0000
  As  As11      1.0  0.007043188359263992  0.008326907499829596  3.292632110574454e-05  1.0000
  As  As12      1.0  0.004281446075256717  0.0017053877772264356  0.00011226654447286813  1.0000
  Ru  Ru5       1.0  0.005560461871058874  0.004900920086225927  6.0666824302091216e-05  1.0000
  Ru  Ru6       1.0  0.0007858728755014096  0.009901035550386501  6.0667425997816314e-05  1.0000
