data_image0
_chemical_formula_structural       COGa6Pd14Ga6Pd14
_chemical_formula_sum              "C1 O1 Ga12 Pd28"
_cell_length_a       7.227116712507936
_cell_length_b       8.282211663503647
_cell_length_c       102.39220428466797
_cell_angle_alpha    93.66492123455612
_cell_angle_beta     94.00545265322077
_cell_angle_gamma    73.35160016808224

_space_group_name_H-M_alt    "P 1"
_space_group_IT_number       1

loop_
  _space_group_symop_operation_xyz
  'x, y, z'

loop_
  _atom_site_type_symbol
  _atom_site_label
  _atom_site_symmetry_multiplicity
  _atom_site_fract_x
  _atom_site_fract_y
  _atom_site_fract_z
  _atom_site_occupancy
  C   C1        1.0  0.00950936936849953  0.004147330376996833  0.00011611958317418149  1.0000
  O   O1        1.0  0.00950936936849953  0.004147330376996833  0.00023331566072602638  1.0000
  Ga  Ga1       1.0  0.00493248374041632  0.004798426960488847  0.9994921112223409  1.0000
  Ga  Ga2       1.0  0.002216101847787331  0.00020157302952298868  0.9991429202233109  1.0000
  Ga  Ga3       1.0  0.009315531958474225  0.0035619473607484053  0.999314045079045  1.0000
  Ga  Ga4       1.0  0.0032658168761909557  0.0006317602660199047  1.9367918434337774e-05  1.0000
  Ga  Ga5       1.0  0.0005494351519358568  0.0010349064444364032  0.9996701775785967  1.0000
  Ga  Ga6       1.0  0.0076488648248506375  0.0043952808275017395  0.9998413018503195  1.0000
  Pd  Pd1       1.0  0.005765817037829891  0.004381760519042065  0.9992284826913546  1.0000
  Pd  Pd2       1.0  0.0010410026224947258  0.0007136080286249495  0.9994191103206644  1.0000
  Pd  Pd3       1.0  0.0004906309413084288  0.003049912491422154  0.9990378547133913  1.0000
  Pd  Pd4       1.0  0.008469642548643406  0.0011579225306149723  0.9991678926124785  1.0000
  Pd  Pd5       1.0  0.003061991257618151  0.002605598141353849  0.9992890724002732  1.0000
  Pd  Pd6       1.0  0.006816857505494862  0.0017671027653838824  0.9994158944147185  1.0000
  Pd  Pd7       1.0  0.004714776570164918  0.0019964176146550555  0.9990410708889126  1.0000
  Pd  Pd8       1.0  0.004099150173604526  0.00021509359921517923  0.9997557399684037  1.0000
  Pd  Pd9       1.0  0.009374336202776432  0.0015469415307991035  0.999946367654478  1.0000
  Pd  Pd10      1.0  0.00882396425219191  0.0038832457221313374  0.9995651117534126  1.0000
  Pd  Pd11      1.0  0.006802975415019817  0.001991255997368307  0.999695149965874  1.0000
  Pd  Pd12      1.0  0.0013953246627910105  0.0034389314749633  0.9998163294645762  1.0000
  Pd  Pd13      1.0  0.005150190910667722  0.002600436098993333  0.999943151187961  1.0000
  Pd  Pd14      1.0  0.003048109705939554  0.002829751014836448  0.9995683276611712  1.0000
  Ga  Ga7       1.0  0.00493248374041632  0.009798427393176096  0.9994921110091933  1.0000
  Ga  Ga8       1.0  0.002216101847787331  0.005201573293191781  0.9991429203003498  1.0000
  Ga  Ga9       1.0  0.009315531958474225  0.00856194734271977  0.999314044863567  1.0000
  Ga  Ga10      1.0  0.0032658168761909557  0.005631760360670241  1.9367994599439506e-05  1.0000
  Ga  Ga11      1.0  0.0005494351519358568  0.00603490665176571  0.9996701770732234  1.0000
  Ga  Ga12      1.0  0.0076488648248506375  0.009395281260188989  0.9998413019282324  1.0000
  Pd  Pd15      1.0  0.005765817037829891  0.009381760951729313  0.9992284824782071  1.0000
  Pd  Pd16      1.0  0.0010410026224947258  0.005713608348633227  0.9994191103979947  1.0000
  Pd  Pd17      1.0  0.0004906309413084288  0.008049912924109403  0.9990378547913042  1.0000
  Pd  Pd18      1.0  0.008469642548643406  0.006157922963302221  0.9991678926903914  1.0000
  Pd  Pd19      1.0  0.003061991257618151  0.007605598574041098  0.9992890724781861  1.0000
  Pd  Pd20      1.0  0.006816857505494862  0.006767102747355247  0.999415894490301  1.0000
  Pd  Pd21      1.0  0.004714776570164918  0.006996417821984361  0.9990410709656603  1.0000
  Pd  Pd22      1.0  0.004099150173604526  0.0052150939192234565  0.9997557394636131  1.0000
  Pd  Pd23      1.0  0.009374336202776432  0.006546941512770469  0.9999463677300604  1.0000
  Pd  Pd24      1.0  0.00882396425219191  0.008883246154818584  0.9995651118313255  1.0000
  Pd  Pd25      1.0  0.006802975415019817  0.006991255979339672  0.9996951494593356  1.0000
  Pd  Pd26      1.0  0.0013953246627910105  0.008438931456934664  0.9998163295401588  1.0000
  Pd  Pd27      1.0  0.005150190910667722  0.007600436531680582  0.9999431512658739  1.0000
  Pd  Pd28      1.0  0.003048109705939554  0.007829751672881639  0.9995683280313097  1.0000
