data_image0
_chemical_formula_structural       HFe6Si6W6
_chemical_formula_sum              "H1 Fe6 Si6 W6"
_cell_length_a       5.559645175933838
_cell_length_b       6.809146586957547
_cell_length_c       99.93960571289062
_cell_angle_alpha    94.34775310923706
_cell_angle_beta     90.0
_cell_angle_gamma    114.09484379026014

_space_group_name_H-M_alt    "P 1"
_space_group_IT_number       1

loop_
  _space_group_symop_operation_xyz
  'x, y, z'

loop_
  _atom_site_type_symbol
  _atom_site_label
  _atom_site_symmetry_multiplicity
  _atom_site_fract_x
  _atom_site_fract_y
  _atom_site_fract_z
  _atom_site_occupancy
  H   H1        1.0  0.0010259532298416538  0.0017270718226063463  0.00013160137989966903  1.0000
  Fe  Fe1       1.0  0.003541666623370901  0.0023055147207403817  0.9995925532788708  1.0000
  Fe  Fe2       1.0  0.009375000164422524  0.003972181387407048  0.9993429058076807  1.0000
  Fe  Fe3       1.0  0.0077126400786652  0.0006111520586881091  0.9998399124222225  1.0000
  Fe  Fe4       1.0  0.0064583334403866665  0.008138848354771912  0.9994677295448289  1.0000
  Fe  Fe5       1.0  0.00458964088640416  0.004716708920777331  0.9999619490092082  1.0000
  Fe  Fe6       1.0  0.0006250002343645433  0.006472181688105246  0.9997173770160188  1.0000
  Si  Si1       1.0  0.0016609202966164354  0.003607634137857374  0.9997807153254328  1.0000
  Si  Si2       1.0  0.007500000127155103  0.005222181688105246  0.9995301414126263  1.0000
  Si  Si3       1.0  0.006080730578400483  0.0019392393586516404  3.080713976288863e-05  1.0000
  Si  Si4       1.0  0.00458333355639063  0.009388848354771911  0.9996549651482214  1.0000
  Si  Si5       1.0  0.00041666664943923134  0.0010555146455658324  0.9994053176750899  1.0000
  Si  Si6       1.0  0.00854582216010738  0.0075875019725801735  0.999903275845365  1.0000
  W   W1        1.0  0.0025000002230572975  0.005222181688105246  0.9995301414126263  1.0000
  W   W2        1.0  0.0009098492729689226  0.0014948638041641649  7.721151072063922e-06  1.0000
  W   W3        1.0  0.006626676762845691  0.0035712682992894863  0.9997824968262454  1.0000
  W   W4        1.0  0.005416666605885396  0.0010555146455658324  0.9994053176750899  1.0000
  W   W5        1.0  0.0036224335978949666  0.007938828123797207  0.9999094120496653  1.0000
  W   W6        1.0  0.009583333460488435  0.009388848354771911  0.9996549651482214  1.0000
