data_image0
_chemical_formula_structural       HGa2Cu6Ga2Cu6
_chemical_formula_sum              "H1 Ga4 Cu12"
_cell_length_a       5.309601306915283
_cell_length_b       5.309601150744155
_cell_length_c       100.11869049072266
_cell_angle_alpha    90.0
_cell_angle_beta     90.0
_cell_angle_gamma    120.00000097297317

_space_group_name_H-M_alt    "P 1"
_space_group_IT_number       1

loop_
  _space_group_symop_operation_xyz
  'x, y, z'

loop_
  _atom_site_type_symbol
  _atom_site_label
  _atom_site_symmetry_multiplicity
  _atom_site_fract_x
  _atom_site_fract_y
  _atom_site_fract_z
  _atom_site_occupancy
  H   H1        1.0  0.009173221067243805  0.0008267687673217412  0.00012305555341762407  1.0000
  Ga  Ga1       1.0  0.0025066126057340667  0.007493397341896303  0.9995699279908369  1.0000
  Ga  Ga2       1.0  0.005839946012181175  0.004160063965354755  0.9993550496024768  1.0000
  Cu  Cu1       1.0  0.0008267784840582136  0.004133729098544595  0.9993550496024768  1.0000
  Cu  Cu2       1.0  0.0058662807164334176  0.009173231463572157  0.9993550496024768  1.0000
  Cu  Cu3       1.0  0.0008267785290088275  0.009173231463572157  0.9993550496024768  1.0000
  Cu  Cu4       1.0  0.007519779783050059  0.007519732208706461  0.9995699279908369  1.0000
  Cu  Cu5       1.0  0.002480277726078339  0.0024802298436789006  0.9995699279908369  1.0000
  Cu  Cu6       1.0  0.007519780001204672  0.0024802298436789006  0.9995699279908369  1.0000
  Ga  Ga3       1.0  0.002506673663992163  0.007493354403732858  2.4745300282554957e-05  1.0000
  Ga  Ga4       1.0  0.005839869462791084  0.0041601571330678894  0.9997817519881683  1.0000
  Cu  Cu7       1.0  0.0008369760143845441  0.004154106092638274  0.9997854478578702  1.0000
  Cu  Cu8       1.0  0.005845893851628394  0.009163072132070299  0.9997854502392295  1.0000
  Cu  Cu9       1.0  0.0008371712044107473  0.009162925494191364  0.9997854430951514  1.0000
  Cu  Cu10      1.0  0.007507790738443351  0.0074959533778523125  0.9999999946419414  1.0000
  Cu  Cu11      1.0  0.0025040353885594072  0.0024921982491236333  0.9999999952372813  1.0000
  Cu  Cu12      1.0  0.0075078386464893  0.0024921547033446684  0.0  1.0000
