data_image0
_chemical_formula_structural       COGa18Ir4
_chemical_formula_sum              "C1 O1 Ga18 Ir4"
_cell_length_a       6.554213097643147
_cell_length_b       6.492948055267334
_cell_length_c       105.91753387451172
_cell_angle_alpha    90.0
_cell_angle_beta     93.22366847576201
_cell_angle_gamma    90.0

_space_group_name_H-M_alt    "P 1"
_space_group_IT_number       1

loop_
  _space_group_symop_operation_xyz
  'x, y, z'

loop_
  _atom_site_type_symbol
  _atom_site_label
  _atom_site_symmetry_multiplicity
  _atom_site_fract_x
  _atom_site_fract_y
  _atom_site_fract_z
  _atom_site_occupancy
  C   C1        1.0  0.00965159742122797  0.002645057596191265  0.00017501691573587898  1.0000
  O   O1        1.0  0.00965159742122797  0.002645057596191265  0.0002883128345486449  1.0000
  Ga  Ga1       1.0  0.00034840219166038  0.007410362796996541  0.9995932171721086  1.0000
  Ga  Ga2       1.0  0.00950275526943663  0.002645057596191265  1.1229546454291719e-05  1.0000
  Ga  Ga3       1.0  0.0015877886661961574  0.00712211493494128  5.525148778598921e-06  1.0000
  Ga  Ga4       1.0  0.002192511854816044  0.003410607434573534  0.9996016303197891  1.0000
  Ga  Ga5       1.0  0.006040679736903985  0.007609401492057657  0.9993380018765243  1.0000
  Ga  Ga6       1.0  0.005917554322785607  0.0024051524035395805  0.9997653060810923  1.0000
  Ga  Ga7       1.0  0.003932980343982493  0.00734650278951602  0.9997897462735403  1.0000
  Ga  Ga8       1.0  0.0040191479812883525  0.0026209460025884393  0.9993708168342362  1.0000
  Ga  Ga9       1.0  0.006165602943061396  0.005540419639334027  0.9995693894173053  1.0000
  Ga  Ga10      1.0  0.006025557334204544  0.004861842800520155  0.9999899434147392  1.0000
  Ga  Ga11      1.0  0.004047669001286923  0.009490696175703084  0.9995628450298119  1.0000
  Ga  Ga12      1.0  0.0038469359561941908  0.0005031654615203546  0.9999892497460634  1.0000
  Ga  Ga13      1.0  0.008964319400155836  0.00475387994871224  0.9993835623486946  1.0000
  Ga  Ga14      1.0  0.00891903246079643  0.005270746740821693  0.9997998400108903  1.0000
  Ga  Ga15      1.0  0.0009518203016705516  0.0004239457521399827  0.9997783916387017  1.0000
  Ga  Ga16      1.0  0.0009720982629999742  0.009576054372649348  0.9993424152605783  1.0000
  Ga  Ga17      1.0  0.00805029699296772  0.0013968891822643652  0.9995320892941321  1.0000
  Ga  Ga18      1.0  0.007587075209180561  0.008839675689754176  0.9999583692965943  1.0000
  Ir  Ir1       1.0  0.0026362972181482895  0.006224032803398239  0.999426307253914  1.0000
  Ir  Ir2       1.0  0.0025491373226017603  0.0038361826556678677  0.999874763606342  1.0000
  Ir  Ir3       1.0  0.0074198065429119  0.008766344315534918  0.9997111340773276  1.0000
  Ir  Ir4       1.0  0.0074198065429119  0.0012417360259725943  0.9992872486354041  1.0000
