data_image0
_chemical_formula_structural       HCu20Ge10Se40
_chemical_formula_sum              "H1 Cu20 Ge10 Se40"
_cell_length_a       11.933566628886828
_cell_length_b       12.788247428007685
_cell_length_c       109.69963073730469
_cell_angle_alpha    101.1439744421294
_cell_angle_beta     119.17996648485625
_cell_angle_gamma    77.62413028897993

_space_group_name_H-M_alt    "P 1"
_space_group_IT_number       1

loop_
  _space_group_symop_operation_xyz
  'x, y, z'

loop_
  _atom_site_type_symbol
  _atom_site_label
  _atom_site_symmetry_multiplicity
  _atom_site_fract_x
  _atom_site_fract_y
  _atom_site_fract_z
  _atom_site_occupancy
  H   H1        1.0  0.00113511199558394  7.15887039488459e-05  0.00037865307055421764  1.0000
  Cu  Cu1       1.0  0.0016423217846054505  0.00566686337891429  0.9996278267281498  1.0000
  Cu  Cu2       1.0  0.009642321214051336  0.009666862975039065  0.9993865640506056  1.0000
  Cu  Cu3       1.0  0.0036423217773832468  0.0016668634165711565  0.999869089399399  1.0000
  Cu  Cu4       1.0  0.0076423217629388385  0.0036668633315567224  0.9991453014604339  1.0000
  Cu  Cu5       1.0  0.005525047802323771  0.007822321337277841  6.697514256866915e-05  1.0000
  Cu  Cu6       1.0  0.0006423218333553274  0.0026668634349951356  0.9995071954183407  1.0000
  Cu  Cu7       1.0  0.008642321849605287  0.00666686296280745  0.9992659327703803  1.0000
  Cu  Cu8       1.0  0.002642321690716799  0.008666863328088248  0.999748458035683  1.0000
  Cu  Cu9       1.0  0.0067344849436113425  0.0007989580144827075  0.000186808998088689  1.0000
  Cu  Cu10      1.0  0.004589013331957456  0.004556805920955315  8.895618150215058e-06  1.0000
  Cu  Cu11      1.0  0.0076423217629388385  0.0036668633315567224  0.9997484579417898  1.0000
  Cu  Cu12      1.0  0.005642321589605943  0.0076668634633710805  0.9995071952647826  1.0000
  Cu  Cu13      1.0  0.009636041507681884  0.009673032117359464  0.9999939476561857  1.0000
  Cu  Cu14      1.0  0.0036423217773832468  0.0016668634165711565  0.9992659326463711  1.0000
  Cu  Cu15      1.0  0.0017355342576290743  0.005629432661100032  0.00019563960737979306  1.0000
  Cu  Cu16      1.0  0.008642321849605287  0.00666686296280745  0.9998690892517363  1.0000
  Cu  Cu17      1.0  0.006642321676272391  0.0006668634034019819  0.9996278266251537  1.0000
  Cu  Cu18      1.0  0.0006433224245793904  0.002721157284124111  7.61631125649531e-05  1.0000
  Cu  Cu19      1.0  0.004642321502939495  0.00466686353521634  0.9993865639481465  1.0000
  Cu  Cu20      1.0  0.002642321690716799  0.008666863328088248  0.9991453015543271  1.0000
  Ge  Ge1       1.0  0.008038055930596585  0.005202003689467293  6.354592405449426e-05  1.0000
  Ge  Ge2       1.0  0.006142321271828967  0.009166863172582876  0.9998690894105555  1.0000
  Ge  Ge3       1.0  0.0001423218464455721  0.0011668633901232566  0.999145301520517  1.0000
  Ge  Ge4       1.0  0.0041423218207164705  0.0031668632321965205  0.9996278268136943  1.0000
  Ge  Ge5       1.0  0.0021423218279386746  0.007166863046087648  0.9993865641391002  1.0000
  Ge  Ge6       1.0  0.008142321445161863  0.0051668633376725295  0.9995071953412245  1.0000
  Ge  Ge7       1.0  0.006142321271828967  0.009166863172582876  0.9992659326575276  1.0000
  Ge  Ge8       1.0  0.0001423218464455721  0.0011668633901232566  0.9997484580018728  1.0000
  Ge  Ge9       1.0  0.004173191687231652  0.0031951902784786703  0.0002099960800369553  1.0000
  Ge  Ge10      1.0  0.00212949772142353  0.007146331617495344  0.9999940911713299  1.0000
  Se  Se1       1.0  0.008366136102376418  0.0033749008059939544  0.9993856125888865  1.0000
  Se  Se2       1.0  0.006366136651263921  0.007374900556827426  0.9991443499416005  1.0000
  Se  Se3       1.0  0.00036613653751420755  0.00937490091685342  0.9996268752091789  1.0000
  Se  Se4       1.0  0.004502308245284074  0.0013541710997588908  0.0001260799580119146  1.0000
  Se  Se5       1.0  0.002366136485153229  0.005374901108217097  0.9998681378814973  1.0000
  Se  Se6       1.0  0.008948921742277557  0.0048979967025621395  0.9991499218818758  1.0000
  Se  Se7       1.0  0.007091982596683934  0.0088766130825011  0.00011608470118284477  1.0000
  Se  Se8       1.0  0.0009489217711663733  0.0008979967983650048  0.9993911845237498  1.0000
  Se  Se9       1.0  0.004948921756721966  0.0028979966391245674  0.9998737098174961  1.0000
  Se  Se10      1.0  0.0029489217639441694  0.006897996453015695  0.999632447142902  1.0000
  Se  Se11      1.0  0.0018576781576169178  0.003928411099277113  0.9995008090579338  1.0000
  Se  Se12      1.0  0.009857677948173002  0.007928410950267464  0.9992595464052847  1.0000
  Se  Se13      1.0  0.003857678150394714  0.009928411273509826  0.9997420716887928  1.0000
  Se  Se14      1.0  0.008958769939638553  0.0009620729505299955  0.00032022380913387813  1.0000
  Se  Se15      1.0  0.0060194549708870075  0.005927092076462342  5.6673324296105816e-05  1.0000
  Se  Se16      1.0  0.009396550334486267  0.006466144319457672  0.9995099128297289  1.0000
  Se  Se17      1.0  0.007396550883373771  0.0004661445275233222  0.9992686499645403  1.0000
  Se  Se18      1.0  0.001396550995317932  0.0024661444159192743  0.9997511755051348  1.0000
  Se  Se19      1.0  0.0055469953580294966  0.004396565198589986  0.0002598075331032335  1.0000
  Se  Se20      1.0  0.0033350021920833554  0.008460224604469754  0.9999925986798804  1.0000
  Se  Se21      1.0  0.006366136651263921  0.007374900556827426  0.9997475064229564  1.0000
  Se  Se22      1.0  0.004366136477931025  0.0013749009974219574  0.9995062437963739  1.0000
  Se  Se23      1.0  0.008389213210786206  0.00334056492369403  0.9999970454694169  1.0000
  Se  Se24      1.0  0.002366136485153229  0.005374901108217097  0.9992649811284693  1.0000
  Se  Se25      1.0  0.0003535192342964441  0.009926446191772987  0.00024240337192744067  1.0000
  Se  Se26      1.0  0.008948921742277557  0.0048979967025621395  0.9997530786349037  1.0000
  Se  Se27      1.0  0.006948921568944662  0.008897996537472485  0.9995118159512069  1.0000
  Se  Se28      1.0  0.0009518579581985767  0.0008987879695388918  0.9999933686482344  1.0000
  Se  Se29      1.0  0.004948921756721966  0.0028979966391245674  0.9992705533361402  1.0000
  Se  Se30      1.0  0.002750228459978821  0.007105447606604189  0.00023448931209019692  1.0000
  Se  Se31      1.0  0.005857677962617411  0.005928410886829892  0.9993801778595491  1.0000
  Se  Se32      1.0  0.003857678150394714  0.009928411273509826  0.9991389152074369  1.0000
  Se  Se33      1.0  0.007857677774840107  0.0019284113908619956  0.9996214405317301  1.0000
  Se  Se34      1.0  0.0022590337277504117  0.0037925607950010085  0.00023827295138820147  1.0000
  Se  Se35      1.0  0.009857677948173002  0.007928410950267464  0.9998627031583126  1.0000
  Se  Se36      1.0  0.005396550710040874  0.004466144807789687  0.9996305440439058  1.0000
  Se  Se37      1.0  0.0033965508978181782  0.008466144600661595  0.9993892813784144  1.0000
  Se  Se38      1.0  0.007396550883373771  0.0004661445275233222  0.9998718064458962  1.0000
  Se  Se39      1.0  0.001396550995317932  0.0024661444159192743  0.9991480187521068  1.0000
  Se  Se40      1.0  0.009503008510182962  0.006417228889166351  0.0001234504106072739  1.0000
