data_image0
_chemical_formula_structural       COCu12Si4
_chemical_formula_sum              "C1 O1 Cu12 Si4"
_cell_length_a       4.5355730056762695
_cell_length_b       4.535572632017866
_cell_length_c       100.98517608642578
_cell_angle_alpha    90.0
_cell_angle_beta     90.0
_cell_angle_gamma    110.59724778662441

_space_group_name_H-M_alt    "P 1"
_space_group_IT_number       1

loop_
  _space_group_symop_operation_xyz
  'x, y, z'

loop_
  _atom_site_type_symbol
  _atom_site_label
  _atom_site_symmetry_multiplicity
  _atom_site_fract_x
  _atom_site_fract_y
  _atom_site_fract_z
  _atom_site_occupancy
  C   C1        1.0  0.0024999836965016132  0.004999997701111148  0.00011246273419163275  1.0000
  O   O1        1.0  0.0024999836965016132  0.004999997701111148  0.00023129170671112815  1.0000
  Cu  Cu1       1.0  0.004999999912904865  6.850000116699234e-09  0.999102264483132  1.0000
  Cu  Cu2       1.0  1.983273773664425e-10  0.005000006914215324  0.9993579551848364  1.0000
  Cu  Cu3       1.0  1.983273773664425e-10  0.005000006914215324  0.999102264483132  1.0000
  Cu  Cu4       1.0  0.004999999912904865  6.850000116699234e-09  0.9993579551848364  1.0000
  Cu  Cu5       1.0  0.004999999960136043  0.005000006914215324  0.9994858005356886  1.0000
  Cu  Cu6       1.0  1.4999997139919606e-10  6.850000116699234e-09  0.9992301098339842  1.0000
  Cu  Cu7       1.0  0.004999999912904865  6.850000116699234e-09  0.9996136458865408  1.0000
  Cu  Cu8       1.0  0.009999999730031402  0.005000017443477237  0.999881894651455  1.0000
  Cu  Cu9       1.0  1.983273773664425e-10  0.005000006914215324  0.9996136458865408  1.0000
  Cu  Cu10      1.0  0.00499998340190429  0.009999985750398876  0.999881894651455  1.0000
  Cu  Cu11      1.0  0.004999967442923907  0.004999977520025813  0.0  1.0000
  Cu  Cu12      1.0  1.3349999535662868e-08  1.3650000324166052e-08  0.9997439882122906  1.0000
  Si  Si1       1.0  0.004999999960136043  0.005000006914215324  0.9992301098339842  1.0000
  Si  Si2       1.0  1.4999997139919606e-10  6.850000116699234e-09  0.9994858005356886  1.0000
  Si  Si3       1.0  0.005000000474153327  0.005000007791653816  0.999739621088483  1.0000
  Si  Si4       1.0  0.009999992409959052  0.009999993647345311  0.9999941201125327  1.0000
