data_image0
_chemical_formula_structural       COZn2Cu6Zn2Cu6Zn2Cu6
_chemical_formula_sum              "C1 O1 Zn6 Cu18"
_cell_length_a       4.601766109466553
_cell_length_b       8.924733296554047
_cell_length_c       99.22513580322266
_cell_angle_alpha    98.56008598417333
_cell_angle_beta     90.0
_cell_angle_gamma    104.94013869087271

_space_group_name_H-M_alt    "P 1"
_space_group_IT_number       1

loop_
  _space_group_symop_operation_xyz
  'x, y, z'

loop_
  _atom_site_type_symbol
  _atom_site_label
  _atom_site_symmetry_multiplicity
  _atom_site_fract_x
  _atom_site_fract_y
  _atom_site_fract_z
  _atom_site_occupancy
  C   C1        1.0  0.0024615685717924098  0.006589803764377841  0.00022043968713017875  1.0000
  O   O1        1.0  0.0024615685717924098  0.006589803764377841  0.0003413764297903037  1.0000
  Zn  Zn1       1.0  0.0014474226486870852  0.006228178538960214  0.9999495027333231  1.0000
  Zn  Zn2       1.0  0.006447422511066152  0.006228178538960214  0.9998156241865629  1.0000
  Cu  Cu1       1.0  0.00894742199398112  0.0012281781847994727  0.9998825632689842  1.0000
  Cu  Cu2       1.0  0.003947422333985781  0.0012281781847994727  1.644271679595941e-05  1.0000
  Cu  Cu3       1.0  0.0035089338433377955  0.0036845344450895474  0.9999154487011127  1.0000
  Cu  Cu4       1.0  0.008508933705716861  0.0036845344450895474  4.932814892446288e-05  1.0000
  Cu  Cu5       1.0  0.0010525780748293961  0.00877182263283088  0.9998496782187734  1.0000
  Cu  Cu6       1.0  0.006052577937208462  0.00877182263283088  0.9999835567655334  1.0000
  Zn  Zn3       1.0  0.0014474226486870852  0.006228178538960214  0.9996817450391017  1.0000
  Zn  Zn4       1.0  0.006447422511066152  0.006228178538960214  0.9995478661919911  1.0000
  Cu  Cu7       1.0  0.00894742199398112  0.0012281781847994727  0.9996148055747629  1.0000
  Cu  Cu8       1.0  0.003947422333985781  0.0012281781847994727  0.9997486847222241  1.0000
  Cu  Cu9       1.0  0.0035089338433377955  0.0036845344450895474  0.9996476910068913  1.0000
  Cu  Cu10      1.0  0.008508933705716861  0.0036845344450895474  0.9997815701543525  1.0000
  Cu  Cu11      1.0  0.0010525780748293961  0.00877182263283088  0.9995819202242014  1.0000
  Cu  Cu12      1.0  0.006052577937208462  0.00877182263283088  0.9997157990713121  1.0000
  Zn  Zn5       1.0  0.0014474226486870852  0.006228178538960214  0.9994139873448804  1.0000
  Zn  Zn6       1.0  0.006447422511066152  0.006228178538960214  0.9992801084977697  1.0000
  Cu  Cu13      1.0  0.00894742199398112  0.0012281781847994727  0.9993470478805415  1.0000
  Cu  Cu14      1.0  0.003947422333985781  0.0012281781847994727  0.9994809267276522  1.0000
  Cu  Cu15      1.0  0.0035089338433377955  0.0036845344450895474  0.9993799333126699  1.0000
  Cu  Cu16      1.0  0.008508933705716861  0.0036845344450895474  0.9995138121597806  1.0000
  Cu  Cu17      1.0  0.0010525780748293961  0.00877182263283088  0.9993141625299801  1.0000
  Cu  Cu18      1.0  0.006052577937208462  0.00877182263283088  0.9994480413770908  1.0000
