data_image0
_chemical_formula_structural       COSe18
_chemical_formula_sum              "C1 O1 Se18"
_cell_length_a       6.8523725769946005
_cell_length_b       9.419127340623751
_cell_length_c       100.31017303466797
_cell_angle_alpha    87.89181874633852
_cell_angle_beta     84.24649455398618
_cell_angle_gamma    85.33332360496709

_space_group_name_H-M_alt    "P 1"
_space_group_IT_number       1

loop_
  _space_group_symop_operation_xyz
  'x, y, z'

loop_
  _atom_site_type_symbol
  _atom_site_label
  _atom_site_symmetry_multiplicity
  _atom_site_fract_x
  _atom_site_fract_y
  _atom_site_fract_z
  _atom_site_occupancy
  C   C1        1.0  0.005234813480390843  0.00855527076828094  0.9999345990141146  1.0000
  O   O1        1.0  0.005234813480390843  0.00855527076828094  5.422819982586735e-05  1.0000
  Se  Se1       1.0  0.006391164788270891  0.009641716665438664  0.9988760421924365  1.0000
  Se  Se2       1.0  0.0021054505459694715  0.006308383199777435  0.9990199298937991  1.0000
  Se  Se3       1.0  0.007819735888851303  0.0029750499326080494  0.9991638179419546  1.0000
  Se  Se4       1.0  0.007043303042367599  0.007069210771024892  0.998892463117859  1.0000
  Se  Se5       1.0  0.0027575887144377087  0.003735878099331035  0.999036351114167  1.0000
  Se  Se6       1.0  0.00847187407337488  0.0004025446832927669  0.9991802388656252  1.0000
  Se  Se7       1.0  0.0019424158400081317  2.2130699177195734e-05  0.9991020353950013  1.0000
  Se  Se8       1.0  0.007656701335321382  0.0066887971838930065  0.9992459232349988  1.0000
  Se  Se9       1.0  0.0062281299510607655  0.0033554641152154637  0.9989581473976074  1.0000
  Se  Se10      1.0  0.0035340218874158526  0.009641716665438664  0.9993077057301125  1.0000
  Se  Se11      1.0  0.008935941424063782  0.006466704263668307  0.9994762589571496  1.0000
  Se  Se12      1.0  0.00608577453306533  0.0036032565683332784  0.999702427648842  1.0000
  Se  Se13      1.0  0.00418616014151256  0.007069210771024892  0.9993241266555349  1.0000
  Se  Se14      1.0  0.0010640585232198853  0.002426984577024998  0.9996440639119133  1.0000
  Se  Se15      1.0  0.008889043428830769  0.009786730042200953  0.9999092712532637  1.0000
  Se  Se16      1.0  0.001247396592597544  0.00997786895346208  0.9997404531880056  1.0000
  Se  Se17      1.0  0.0063144772332690575  0.006061079433577325  0.9996332245243743  1.0000
  Se  Se18      1.0  0.004290136055215408  0.002511831106307785  0.9995461452836457  1.0000
