data_image0
_chemical_formula_structural       COCo9W3Co9W3
_chemical_formula_sum              "C1 O1 Co18 W6"
_cell_length_a       5.102138996124268
_cell_length_b       5.102138977333768
_cell_length_c       107.49291229248047
_cell_angle_alpha    90.0
_cell_angle_beta     90.0
_cell_angle_gamma    59.999999878171735

_space_group_name_H-M_alt    "P 1"
_space_group_IT_number       1

loop_
  _space_group_symop_operation_xyz
  'x, y, z'

loop_
  _atom_site_type_symbol
  _atom_site_label
  _atom_site_symmetry_multiplicity
  _atom_site_fract_x
  _atom_site_fract_y
  _atom_site_fract_z
  _atom_site_occupancy
  C   C1        1.0  0.0024971093171004266  0.00749704622882061  0.00015644450693862887  1.0000
  O   O1        1.0  0.0024971093171004266  0.00749704622882061  0.0002680800005053477  1.0000
  Co  Co1       1.0  0.008333343993267323  0.00333333526121364  0.9992262615676345  1.0000
  Co  Co2       1.0  0.001666677234962561  0.006666668836234592  0.999032487121354  1.0000
  Co  Co3       1.0  0.005000010703079851  1.9000000124429575e-09  0.9994200362911643  1.0000
  Co  Co4       1.0  0.003333343566920085  0.008333335412970983  0.9992262615676345  1.0000
  Co  Co5       1.0  0.006666677661309799  0.0016666686844772501  0.999032487121354  1.0000
  Co  Co6       1.0  1.0355397900633751e-08  0.005000002259498202  0.9994200362911643  1.0000
  Co  Co7       1.0  0.008333344267857219  0.008333335412970983  0.9992262615676345  1.0000
  Co  Co8       1.0  0.001666677142908377  0.0016666686844772501  0.999032487121354  1.0000
  Co  Co9       1.0  0.005000010143656475  0.005000002259498202  0.9994200362911643  1.0000
  W   W1        1.0  0.0066666772057568475  0.006666668836234592  0.999032487121354  1.0000
  W   W2        1.0  1.0450000141232225e-08  1.9000000124429575e-09  0.9994200362911643  1.0000
  W   W3        1.0  0.003333344022473037  0.00333333526121364  0.9992262615676345  1.0000
  Co  Co10      1.0  0.008328001102573871  0.003344057549742954  0.9998062854395435  1.0000
  Co  Co11      1.0  0.001666677234962561  0.006666668836234592  0.9996138107374448  1.0000
  Co  Co12      1.0  0.004994204156608963  1.1651500084197081e-05  0.9999999994455017  1.0000
  Co  Co13      1.0  0.0033439757175817765  0.008328002828594978  0.99980628322155  1.0000
  Co  Co14      1.0  0.006666677661309799  0.0016666686844772501  0.9996138107374448  1.0000
  Co  Co15      1.0  1.1654917693627307e-05  0.004994142739907179  0.9999999983365049  1.0000
  Co  Co16      1.0  0.008328038259458893  0.008327957301392401  0.9998062837760484  1.0000
  Co  Co17      1.0  0.001666677142908377  0.0016666686844772501  0.9996138107374448  1.0000
  Co  Co18      1.0  0.004994228924210287  0.0049940938403192255  0.0  1.0000
  W   W4        1.0  0.0066666772057568475  0.006666668836234592  0.9996138107374448  1.0000
  W   W5        1.0  0.009999989651579137  0.009999998617321997  0.9999906262050359  1.0000
  W   W6        1.0  0.0033333372968900655  0.003333334839665468  0.9998207811359618  1.0000
