data_image0
_chemical_formula_structural       CONi2As4Ni2As4Ni2As4Ni2As4
_chemical_formula_sum              "C1 O1 Ni8 As16"
_cell_length_a       4.800749778747559
_cell_length_b       7.269161701202393
_cell_length_c       105.30501556396484
_cell_angle_alpha    90.0
_cell_angle_beta     90.0
_cell_angle_gamma    90.0

_space_group_name_H-M_alt    "P 1"
_space_group_IT_number       1

loop_
  _space_group_symop_operation_xyz
  'x, y, z'

loop_
  _atom_site_type_symbol
  _atom_site_label
  _atom_site_symmetry_multiplicity
  _atom_site_fract_x
  _atom_site_fract_y
  _atom_site_fract_z
  _atom_site_occupancy
  C   C1        1.0  0.006892455101370673  0.005000000163993173  0.00013758904249428313  1.0000
  O   O1        1.0  0.006892455101370673  0.005000000163993173  0.00025154339357418226  1.0000
  Ni  Ni1       1.0  0.006115203110340168  0.0025000000819965867  0.9998226628358015  1.0000
  Ni  Ni2       1.0  0.0009101176775397198  4.999999781773867e-11  0.999546114984714  1.0000
  As  As1       1.0  0.009089882566894275  0.0025000000819965867  0.0  1.0000
  As  As2       1.0  0.003840428193232314  0.0025000000819965867  0.9996195084107351  1.0000
  As  As3       1.0  0.00885876983730076  4.999999781773867e-11  0.9997525059067031  1.0000
  As  As4       1.0  0.0024975995883377688  0.009999999303029012  0.9999193281350265  1.0000
  Ni  Ni3       1.0  0.005910117945253142  0.0025000000819965867  0.9992667279820764  1.0000
  Ni  Ni4       1.0  0.0009101176775397198  4.999999781773867e-11  0.9989873409794386  1.0000
  As  As5       1.0  0.00797980769727397  0.0025000000819965867  0.9994727215586929  1.0000
  As  As6       1.0  0.003840428193232314  0.0025000000819965867  0.9990607344054597  1.0000
  As  As7       1.0  0.008840428751938587  4.999999781773867e-11  0.9991933345560552  1.0000
  As  As8       1.0  0.0029798073325629313  4.999999781773867e-11  0.9993401214080975  1.0000
  Ni  Ni5       1.0  0.006115203110340168  0.0075000002459897595  0.9998226628358015  1.0000
  Ni  Ni6       1.0  0.0009101176775397198  0.005000000163993173  0.999546114984714  1.0000
  As  As9       1.0  0.009089882566894275  0.007499999733511092  0.0  1.0000
  As  As10      1.0  0.003840428193232314  0.007499999733511092  0.9996195084107351  1.0000
  As  As11      1.0  0.00885876983730076  0.005000000163993173  0.9997525059067031  1.0000
  As  As12      1.0  0.0024975995883377688  0.004999999651514506  0.9999193281350265  1.0000
  Ni  Ni7       1.0  0.005910117945253142  0.007499999733511092  0.9992667279820764  1.0000
  Ni  Ni8       1.0  0.0009101176775397198  0.005000000163993173  0.9989873409794386  1.0000
  As  As13      1.0  0.00797980769727397  0.007499999733511092  0.9994727215586929  1.0000
  As  As14      1.0  0.003840428193232314  0.007499999733511092  0.9990607344054597  1.0000
  As  As15      1.0  0.008840428751938587  0.005000000163993173  0.9991933345560552  1.0000
  As  As16      1.0  0.0029798073325629313  0.005000000163993173  0.9993401214080975  1.0000
