data_image0
_chemical_formula_structural       HPd8Ti4
_chemical_formula_sum              "H1 Pd8 Ti4"
_cell_length_a       5.000176394128151
_cell_length_b       4.637462139129639
_cell_length_c       98.76083374023438
_cell_angle_alpha    90.0
_cell_angle_beta     89.89405919348425
_cell_angle_gamma    90.0

_space_group_name_H-M_alt    "P 1"
_space_group_IT_number       1

loop_
  _space_group_symop_operation_xyz
  'x, y, z'

loop_
  _atom_site_type_symbol
  _atom_site_label
  _atom_site_symmetry_multiplicity
  _atom_site_fract_x
  _atom_site_fract_y
  _atom_site_fract_z
  _atom_site_occupancy
  H   H1        1.0  0.009377424784562667  0.008333333172672602  9.301616664823437e-05  1.0000
  Pd  Pd1       1.0  0.0003762317251439332  0.0016666664136260143  0.9995113574749793  1.0000
  Pd  Pd2       1.0  0.008233374384853033  0.006666666457807715  0.9993033454557727  1.0000
  Pd  Pd3       1.0  0.005293424054597167  0.0016666664136260143  0.9993811784834761  1.0000
  Pd  Pd4       1.0  0.007436281406063563  0.006666666457807715  0.9995891904297871  1.0000
  Pd  Pd5       1.0  0.004706920254976296  0.001666666714864886  0.9999360009279668  1.0000
  Pd  Pd6       1.0  0.0025190887972229366  0.006666666457807715  0.9997193694213165  1.0000
  Pd  Pd7       1.0  0.009623767727256776  0.0016666666144519288  0.99979556445568  1.0000
  Pd  Pd8       1.0  0.0015339321547395259  0.006666666859459544  0.999999856402419  1.0000
  Ti  Ti1       1.0  0.004977685008514119  0.0016666664136260143  0.9996542799255606  1.0000
  Ti  Ti2       1.0  0.0028348278433059843  0.006666666457807715  0.9994462679792321  1.0000
  Ti  Ti3       1.0  0.009489026265168635  0.0016666670161037576  4.682216585120785e-05  1.0000
  Ti  Ti4       1.0  0.0071285313493695285  0.006666666457807715  0.9998581156353954  1.0000
