data_image0
_chemical_formula_structural       COGa48Ru16
_chemical_formula_sum              "C1 O1 Ga48 Ru16"
_cell_length_a       11.511449928042987
_cell_length_b       9.446966447698111
_cell_length_c       102.39248657226562
_cell_angle_alpha    91.014340039948
_cell_angle_beta     90.83241233134147
_cell_angle_gamma    88.57278277796244

_space_group_name_H-M_alt    "P 1"
_space_group_IT_number       1

loop_
  _space_group_symop_operation_xyz
  'x, y, z'

loop_
  _atom_site_type_symbol
  _atom_site_label
  _atom_site_symmetry_multiplicity
  _atom_site_fract_x
  _atom_site_fract_y
  _atom_site_fract_z
  _atom_site_occupancy
  C   C1        1.0  0.002184857815959837  0.008763337228263788  0.00012072281991708548  1.0000
  O   O1        1.0  0.002184857815959837  0.008763337228263788  0.00023791857436905955  1.0000
  Ga  Ga1       1.0  0.0036191953367429473  0.0004528880002433213  6.650881211054001e-06  1.0000
  Ga  Ga2       1.0  0.0029941114599400763  0.00581340872734238  0.9992457563128003  1.0000
  Ga  Ga3       1.0  0.009660777863291167  0.0008134085446278105  0.9995093863744112  1.0000
  Ga  Ga4       1.0  0.006285665706395334  0.0058530511717807925  0.9997795545136001  1.0000
  Ga  Ga5       1.0  0.003626247553806924  0.0023652040905818707  0.9995912064595271  1.0000
  Ga  Ga6       1.0  0.00035491934302000377  0.007408739346421732  0.9998689177676059  1.0000
  Ga  Ga7       1.0  0.0002929143318970876  0.0023652041924070925  0.9990639463351968  1.0000
  Ga  Ga8       1.0  0.006959580917356799  0.007365204457779718  0.9993275764560489  1.0000
  Ga  Ga9       1.0  0.004569884248509844  0.009728863744274148  0.9993665900611426  1.0000
  Ga  Ga10      1.0  0.0012365512087086296  0.004728863761747909  0.999630220065778  1.0000
  Ga  Ga11      1.0  0.008572031839131912  0.00939683344953986  0.9999137871525969  1.0000
  Ga  Ga12      1.0  0.00790321761205972  0.004728863953712394  0.9991029599991946  1.0000
  Ga  Ga13      1.0  0.0029941114599400763  0.007365204343972919  0.9994912165097848  1.0000
  Ga  Ga14      1.0  0.009707085576643916  0.002307162010636526  0.999758872843913  1.0000
  Ga  Ga15      1.0  0.006631587264778209  0.007647821018256385  1.094768090846218e-05  1.0000
  Ga  Ga16      1.0  0.006327444823489951  0.0023652041590121586  0.999227586156133  1.0000
  Ga  Ga17      1.0  0.004586540793325734  0.0025886661741042205  0.9998936560607862  1.0000
  Ga  Ga18      1.0  0.004569884248509844  0.008177068522042615  0.9991211298648023  1.0000
  Ga  Ga19      1.0  0.0012365512087086296  0.0031770683423168735  0.9993847601601753  1.0000
  Ga  Ga20      1.0  0.00790321761205972  0.008177068415961657  0.9996483902804167  1.0000
  Ga  Ga21      1.0  0.007115331217774835  0.00027113620860710674  0.99943798833457  1.0000
  Ga  Ga22      1.0  0.0037819978542249603  0.005271136196368364  0.9997016183968399  1.0000
  Ga  Ga23      1.0  0.0006575855308865753  0.0006332983193045962  0.9999911546446822  1.0000
  Ga  Ga24      1.0  0.00044866465254941553  0.005271136297585624  0.9991743582725416  1.0000
  Ga  Ga25      1.0  0.0018686874644498071  0.00972886405565177  0.9997302103659502  1.0000
  Ga  Ga26      1.0  0.008807100561285901  0.004598758157619666  0.999980022609188  1.0000
  Ga  Ga27      1.0  0.008535353705926566  0.009728863858080947  0.9992029500074067  1.0000
  Ga  Ga28      1.0  0.005202020666125352  0.004728863875554708  0.999466580012042  1.0000
  Ga  Ga29      1.0  0.002115331334324353  0.00027113621496521913  0.9994379881601348  1.0000
  Ga  Ga30      1.0  0.008781997737675443  0.00527113643650963  0.999701618280618  1.0000
  Ga  Ga31      1.0  0.006538236928614177  0.0007346215905804837  0.9999467447530831  1.0000
  Ga  Ga32      1.0  0.005448664697874228  0.00527113653286319  0.9991743581565761  1.0000
  Ga  Ga33      1.0  0.005695308082125784  0.0008134085391481584  0.9996730264277953  1.0000
  Ga  Ga34      1.0  0.002453868347643611  0.006059790906855807  0.9999495787364243  1.0000
  Ga  Ga35      1.0  0.002361975042324569  0.000813408536901969  0.9991457663035923  1.0000
  Ga  Ga36      1.0  0.009028641769424318  0.005813408699419107  0.9994093964245078  1.0000
  Ga  Ga37      1.0  0.0039719029907911586  0.008151902495843393  0.9998161128656355  1.0000
  Ga  Ga38      1.0  0.003937748154642997  0.0031770682232750563  0.9990211398559462  1.0000
  Ga  Ga39      1.0  0.0006044149124988697  0.008177068404588041  0.9992847699187306  1.0000
  Ga  Ga40      1.0  0.007271081518192872  0.003177068117194098  0.9995483999805009  1.0000
  Ga  Ga41      1.0  0.005448664697874228  0.007771136769502594  0.9995698031049417  1.0000
  Ga  Ga42      1.0  0.002258564540295136  0.0029245772151160047  0.9998340917159468  1.0000
  Ga  Ga43      1.0  0.002115331334324353  0.007771136086785543  0.9990425429790986  1.0000
  Ga  Ga44      1.0  0.008781997737675443  0.0027711363970697287  0.9993061730415147  1.0000
  Ga  Ga45      1.0  0.0037819978542249603  0.0027711363541279652  0.9993061731580588  1.0000
  Ga  Ga46      1.0  0.00044866465254941553  0.007771136139826022  0.9995698032202631  1.0000
  Ga  Ga47      1.0  0.007163593078040231  0.003120657106540491  0.9998375282492016  1.0000
  Ga  Ga48      1.0  0.007115331217774835  0.007771136721325812  0.9990425431545804  1.0000
  Ru  Ru1       1.0  0.001503640777717423  0.001979904107869401  0.9996115215014865  1.0000
  Ru  Ru2       1.0  0.008247867485705539  0.006871427809653773  0.9998727709032714  1.0000
  Ru  Ru3       1.0  0.008170307019194183  0.001979904107498082  0.9990842617253843  1.0000
  Ru  Ru4       1.0  0.004836973979392968  0.006979904479930947  0.9993478917888113  1.0000
  Ru  Ru5       1.0  0.005448664697874228  0.0035623685350167984  0.999694958879163  1.0000
  Ru  Ru6       1.0  0.0021636435375064016  0.008731516386132577  0.9999515212216321  1.0000
  Ru  Ru7       1.0  0.002115331334324353  0.003562368246698753  0.999167698753964  1.0000
  Ru  Ru8       1.0  0.008781997737675443  0.008562368911942042  0.9994313285841122  1.0000
  Ru  Ru9       1.0  0.005448664697874228  0.0019799042546302797  0.9994446475623442  1.0000
  Ru  Ru10      1.0  0.002115331334324353  0.006979904636790541  0.9997082779163181  1.0000
  Ru  Ru11      1.0  0.008724508393098544  0.0019515563977151645  0.9999619133738805  1.0000
  Ru  Ru12      1.0  0.008781997737675443  0.006979904434356022  0.9991810175580309  1.0000
  Ru  Ru13      1.0  0.006055343787096416  0.00856700001185718  0.9997897628264133  1.0000
  Ru  Ru14      1.0  0.006060354768858168  0.0035623686052502278  0.999000824523315  1.0000
  Ru  Ru15      1.0  0.002727021729056953  0.008562368386084587  0.9992644545857757  1.0000
  Ru  Ru16      1.0  0.009393688456156703  0.003562368489441873  0.9995280849394422  1.0000
