data_image0
_chemical_formula_structural       Re6V12W6H
_chemical_formula_sum              "Re6 V12 W6 H1"
_cell_length_a       6.119439601898193
_cell_length_b       7.49475237575342
_cell_length_c       102.95419311523438
_cell_angle_alpha    94.34775286128394
_cell_angle_beta     90.0
_cell_angle_gamma    114.0948421844541

_space_group_name_H-M_alt    "P 1"
_space_group_IT_number       1

loop_
  _space_group_symop_operation_xyz
  'x, y, z'

loop_
  _atom_site_type_symbol
  _atom_site_label
  _atom_site_symmetry_multiplicity
  _atom_site_fract_x
  _atom_site_fract_y
  _atom_site_fract_z
  _atom_site_occupancy
  Re  Re1       1.0  0.006991657753078903  0.003559689051505706  0.999792169993027  1.0000
  Re  Re2       1.0  0.0028180707369310303  0.005212808382248344  0.9995221147521909  1.0000
  Re  Re3       1.0  0.0011792234602115024  0.0019328071104901107  3.4064622277122115e-05  1.0000
  Re  Re4       1.0  0.009901403948762568  0.009379474866787751  0.999655483531406  1.0000
  Re  Re5       1.0  0.005734737259329994  0.0010461414879226023  0.9993887453917709  1.0000
  Re  Re6       1.0  0.004054294658119704  0.007683423314399092  0.9999234240384689  1.0000
  V   V1        1.0  0.006776403778609881  0.008129474648235038  0.9994554299430304  1.0000
  V   V2        1.0  0.005043781392248217  0.004717275075164649  0.9999835354193914  1.0000
  V   V3        1.0  0.0009430705121401649  0.006462808054419276  0.9997221686270229  1.0000
  V   V4        1.0  0.001776403809048046  0.008129474648235038  0.9994554299430304  1.0000
  V   V5        1.0  9.859593829698652e-05  0.004716740167400887  0.9999835637303242  1.0000
  V   V6        1.0  0.005943070481701999  0.006462808054419276  0.9997221686270229  1.0000
  V   V7        1.0  0.003859737239432297  0.0022961415698798697  0.9995887989793928  1.0000
  V   V8        1.0  0.009693070353711185  0.003962808163695632  0.9993220608743436  1.0000
  V   V9        1.0  0.00803304423406058  0.0006205251058931603  0.9998524036613976  1.0000
  V   V10       1.0  0.008859737665566613  0.0022961415698798697  0.9995887989793928  1.0000
  V   V11       1.0  0.004693070536340178  0.003962808163695632  0.9993220608743436  1.0000
  V   V12       1.0  0.0030118965371648885  0.0006207885985071276  0.9998523889051267  1.0000
  W   W1        1.0  0.0020080936899949347  0.0035938903654795817  0.9997878713507506  1.0000
  W   W2        1.0  0.007818070706492864  0.005212808382248344  0.9995221147521909  1.0000
  W   W3        1.0  0.005914810193384787  0.0014055519699554713  3.416361576167796e-05  1.0000
  W   W4        1.0  0.004901403941153027  0.009379474866787751  0.999655483531406  1.0000
  W   W5        1.0  0.0007347373468397191  0.0010461414879226023  0.9993887453917709  1.0000
  W   W6        1.0  0.009081423365079179  0.00773693376051938  0.9999308131405849  1.0000
  H   H1        1.0  0.0020492047326607903  0.008680381563312798  4.790462138166679e-05  1.0000
