data_image0
_chemical_formula_structural       HMn4Si4Ir4Mn4Si4Ir4
_chemical_formula_sum              "H1 Mn8 Si8 Ir8"
_cell_length_a       7.594583511352539
_cell_length_b       5.956766128540039
_cell_length_c       98.4842529296875
_cell_angle_alpha    90.0
_cell_angle_beta     90.0
_cell_angle_gamma    90.0

_space_group_name_H-M_alt    "P 1"
_space_group_IT_number       1

loop_
  _space_group_symop_operation_xyz
  'x, y, z'

loop_
  _atom_site_type_symbol
  _atom_site_label
  _atom_site_symmetry_multiplicity
  _atom_site_fract_x
  _atom_site_fract_y
  _atom_site_fract_z
  _atom_site_occupancy
  H   H1        1.0  0.0037500666713923955  0.004438089996080768  5.8456994476829584e-05  1.0000
  Mn  Mn1       1.0  0.0037499332501245053  0.00975600340499273  0.9994162855337766  1.0000
  Mn  Mn2       1.0  0.0012503473563847192  0.001459391929754574  0.9998734121737196  1.0000
  Mn  Mn3       1.0  0.0037499332501245053  0.0047560035050548165  0.9995185117398746  1.0000
  Mn  Mn4       1.0  0.00124999320140157  0.005321240473288866  0.9997535876815311  1.0000
  Si  Si1       1.0  0.0012499332354089245  0.002749296821191613  0.9993763298137092  1.0000
  Si  Si2       1.0  0.003749698291347596  0.00024399619944933434  0.0  1.0000
  Si  Si3       1.0  0.0012499332354089245  0.007749296408435506  0.999558467762552  1.0000
  Si  Si4       1.0  0.0037499332501245053  0.002384123676058521  0.9997378628541147  1.0000
  Ir  Ir1       1.0  0.0012504091618249918  0.00775287362802872  0.9999558994303999  1.0000
  Ir  Ir2       1.0  0.0037500666713923955  0.004438089996080768  0.9999333555886465  1.0000
  Ir  Ir3       1.0  0.0012499332354089245  0.001706052477691358  0.9996029823026684  1.0000
  Ir  Ir4       1.0  0.0037499332501245053  0.008427367763149679  0.9996933480113883  1.0000
  Mn  Mn5       1.0  0.00874993352481535  0.00975600340499273  0.9994162855337766  1.0000
  Mn  Mn6       1.0  0.006250347385815881  0.001459391929754574  0.9998734121737196  1.0000
  Mn  Mn7       1.0  0.00874993352481535  0.0047560035050548165  0.9995185117398746  1.0000
  Mn  Mn8       1.0  0.006249993230832732  0.005321240473288866  0.9997535876815311  1.0000
  Si  Si5       1.0  0.00624993289695056  0.002749296821191613  0.9993763298137092  1.0000
  Si  Si6       1.0  0.008749698075519074  0.00024399619944933434  0.0  1.0000
  Si  Si7       1.0  0.00624993289695056  0.007749296408435506  0.999558467762552  1.0000
  Si  Si8       1.0  0.00874993352481535  0.002384123676058521  0.9997378628541147  1.0000
  Ir  Ir5       1.0  0.0062504091912561534  0.00775287362802872  0.9999558994303999  1.0000
  Ir  Ir6       1.0  0.00875006694608324  0.004438089996080768  0.9999333555886465  1.0000
  Ir  Ir7       1.0  0.00624993289695056  0.001706052477691358  0.9996029823026684  1.0000
  Ir  Ir8       1.0  0.00874993352481535  0.008427367763149679  0.9996933480113883  1.0000
