data_image0
_chemical_formula_structural       HAl3Co6Fe3Al3Co6Fe3Al3Co6Fe3Al3Co6Fe3
_chemical_formula_sum              "H1 Al12 Co24 Fe12"
_cell_length_a       8.01999568939209
_cell_length_b       8.019995619164858
_cell_length_c       109.289794921875
_cell_angle_alpha    90.0
_cell_angle_beta     90.0
_cell_angle_gamma    120.00000028966329

_space_group_name_H-M_alt    "P 1"
_space_group_IT_number       1

loop_
  _space_group_symop_operation_xyz
  'x, y, z'

loop_
  _atom_site_type_symbol
  _atom_site_label
  _atom_site_symmetry_multiplicity
  _atom_site_fract_x
  _atom_site_fract_y
  _atom_site_fract_z
  _atom_site_occupancy
  H   H1        1.0  0.0008333427227845388  0.0025000096437301023  0.00011273256119164259  1.0000
  Al  Al1       1.0  0.002499999514452604  0.0033333360008241217  0.9994125411034489  1.0000
  Al  Al2       1.0  0.000833342717856677  9.749999450508855e-09  0.0  1.0000
  Al  Al3       1.0  0.004166666135614766  0.0016666694753985894  0.9997121252233534  1.0000
  Co  Co1       1.0  0.0008333332511370612  0.009999996738938876  0.9997792082526692  1.0000
  Co  Co2       1.0  0.004166666135614766  0.0016666694753985894  0.9994874372697704  1.0000
  Co  Co3       1.0  0.002499999514452604  0.0033333360008241217  0.9991878531498659  1.0000
  Co  Co4       1.0  0.002499999514452604  0.0033333360008241217  0.9996372296024135  1.0000
  Co  Co5       1.0  0.0008333329390405001  2.849999914138892e-09  0.9993376449371274  1.0000
  Co  Co6       1.0  0.004166666787154431  0.0016666800684836567  0.9999218440877701  1.0000
  Fe  Fe1       1.0  0.0008333329390405001  2.849999914138892e-09  0.9995623334360919  1.0000
  Fe  Fe2       1.0  0.004166666135614766  0.0016666694753985894  0.9992627493161874  1.0000
  Fe  Fe3       1.0  0.0025000123863709524  0.0033333357326447532  0.9998910491149215  1.0000
  Al  Al4       1.0  0.0024999996198505014  0.008333335979369774  0.9994125411034489  1.0000
  Al  Al5       1.0  0.0008333427174209513  0.0050000096330029276  0.0  1.0000
  Al  Al6       1.0  0.004166666115905285  0.006666669319854556  0.9997121252233534  1.0000
  Co  Co7       1.0  0.000833333145739164  0.004999996760393225  0.9997792082526692  1.0000
  Co  Co8       1.0  0.004166666115905285  0.006666669319854556  0.9994874372697704  1.0000
  Co  Co9       1.0  0.0024999996198505014  0.008333335979369774  0.9991878531498659  1.0000
  Co  Co10      1.0  0.0024999996198505014  0.008333335979369774  0.9996372296024135  1.0000
  Co  Co11      1.0  0.0008333329603352844  0.005000002660339339  0.9993376449371274  1.0000
  Co  Co12      1.0  0.004166666950614864  0.006666680047029308  0.9999218440877701  1.0000
  Fe  Fe4       1.0  0.0008333329603352844  0.005000002660339339  0.9995623334360919  1.0000
  Fe  Fe5       1.0  0.004166666115905285  0.006666669319854556  0.9992627493161874  1.0000
  Fe  Fe6       1.0  0.0025000123576791647  0.008333335443011035  0.9998910491149215  1.0000
  Al  Al7       1.0  0.007499999166077389  0.0033333360008241217  0.9994125411034489  1.0000
  Al  Al8       1.0  0.00583334254366907  9.749999450508855e-09  0.0  1.0000
  Al  Al9       1.0  0.009166665903364624  0.0016666694753985894  0.9997121252233534  1.0000
  Co  Co13      1.0  0.005833333018886918  0.009999996738938876  0.9997792082526692  1.0000
  Co  Co14      1.0  0.009166665903364624  0.0016666694753985894  0.9994874372697704  1.0000
  Co  Co15      1.0  0.007499999166077389  0.0033333360008241217  0.9991878531498659  1.0000
  Co  Co16      1.0  0.007499999166077389  0.0033333360008241217  0.9996372296024135  1.0000
  Co  Co17      1.0  0.005833332590665285  2.849999914138892e-09  0.9993376449371274  1.0000
  Co  Co18      1.0  0.009166666554904288  0.0016666800684836567  0.9999218440877701  1.0000
  Fe  Fe7       1.0  0.005833332590665285  2.849999914138892e-09  0.9995623334360919  1.0000
  Fe  Fe8       1.0  0.009166665903364624  0.0016666694753985894  0.9992627493161874  1.0000
  Fe  Fe9       1.0  0.007500012037995738  0.0033333357326447532  0.9998910491149215  1.0000
  Al  Al10      1.0  0.007499999387600358  0.008333335979369774  0.9994125411034489  1.0000
  Al  Al11      1.0  0.005833342485170807  0.0050000096330029276  0.0  1.0000
  Al  Al12      1.0  0.009166665825592606  0.006666669319854556  0.9997121252233534  1.0000
  Co  Co19      1.0  0.005833332797363948  0.004999996760393225  0.9997792082526692  1.0000
  Co  Co20      1.0  0.009166665825592606  0.006666669319854556  0.9994874372697704  1.0000
  Co  Co21      1.0  0.007499999387600358  0.008333335979369774  0.9991878531498659  1.0000
  Co  Co22      1.0  0.007499999387600358  0.008333335979369774  0.9996372296024135  1.0000
  Co  Co23      1.0  0.005833332728085142  0.005000002660339339  0.9993376449371274  1.0000
  Co  Co24      1.0  0.009166666544177113  0.006666680047029308  0.9999218440877701  1.0000
  Fe  Fe10      1.0  0.005833332728085142  0.005000002660339339  0.9995623334360919  1.0000
  Fe  Fe11      1.0  0.009166665825592606  0.006666669319854556  0.9992627493161874  1.0000
  Fe  Fe12      1.0  0.007500012125429022  0.008333335443011035  0.9998910491149215  1.0000
