data_image0
_chemical_formula_structural       HV12Sn4V12Sn4
_chemical_formula_sum              "H1 V24 Sn8"
_cell_length_a       9.823748588562012
_cell_length_b       4.542364597320557
_cell_length_c       104.03046417236328
_cell_angle_alpha    90.0
_cell_angle_beta     90.0
_cell_angle_gamma    90.0

_space_group_name_H-M_alt    "P 1"
_space_group_IT_number       1

loop_
  _space_group_symop_operation_xyz
  'x, y, z'

loop_
  _atom_site_type_symbol
  _atom_site_label
  _atom_site_symmetry_multiplicity
  _atom_site_fract_x
  _atom_site_fract_y
  _atom_site_fract_z
  _atom_site_occupancy
  H   H1        1.0  0.004999999939325967  0.0012499998851830075  9.023104868834478e-05  1.0000
  V   V1        1.0  0.004252874684118849  0.0037499996555490226  0.999971799216324  1.0000
  V   V2        1.0  0.009252874244232108  0.0037499996555490226  0.999699199280172  1.0000
  V   V3        1.0  0.008505749368237697  0.00874999960634174  0.9995769997039342  1.0000
  V   V4        1.0  0.00350574942891173  0.00874999960634174  0.999849599640086  1.0000
  V   V5        1.0  0.005747124815320377  0.00874999960634174  0.9997274000638481  1.0000
  V   V6        1.0  0.0007471251604039415  0.00874999960634174  0.0  1.0000
  V   V7        1.0  0.0014942504156110598  0.0037499996555490226  0.9995769997039342  1.0000
  V   V8        1.0  0.0064942504497402034  0.0037499996555490226  0.999849599640086  1.0000
  V   V9        1.0  0.004252874684118849  0.0037499996555490226  0.9997274000638481  1.0000
  V   V10       1.0  0.009252874244232108  0.0037499996555490226  0.0  1.0000
  V   V11       1.0  0.005747124815320377  0.00874999960634174  0.999971799216324  1.0000
  V   V12       1.0  0.0007471251604039415  0.00874999960634174  0.999699199280172  1.0000
  Sn  Sn1       1.0  0.006666666332959484  0.0037499996555490226  0.9995769997039342  1.0000
  Sn  Sn2       1.0  0.001666666583239871  0.0037499996555490226  0.999849599640086  1.0000
  Sn  Sn3       1.0  0.003333333166479742  0.00874999960634174  0.9995769997039342  1.0000
  Sn  Sn4       1.0  0.008333332726593002  0.00874999960634174  0.999849599640086  1.0000
  V   V13       1.0  0.004252874684118849  0.0037499996555490226  0.9994265993440202  1.0000
  V   V14       1.0  0.009252874244232108  0.0037499996555490226  0.9991539991213915  1.0000
  V   V15       1.0  0.008505749368237697  0.00874999960634174  0.9990317992586767  1.0000
  V   V16       1.0  0.00350574942891173  0.00874999960634174  0.9993043994813054  1.0000
  V   V17       1.0  0.005747124815320377  0.00874999960634174  0.9991821996185907  1.0000
  V   V18       1.0  0.0007471251604039415  0.00874999960634174  0.9994547995547425  1.0000
  V   V19       1.0  0.0014942504156110598  0.0037499996555490226  0.9990317992586767  1.0000
  V   V20       1.0  0.0064942504497402034  0.0037499996555490226  0.9993043994813054  1.0000
  V   V21       1.0  0.004252874684118849  0.0037499996555490226  0.9991821996185907  1.0000
  V   V22       1.0  0.009252874244232108  0.0037499996555490226  0.9994547995547425  1.0000
  V   V23       1.0  0.005747124815320377  0.00874999960634174  0.9994265993440202  1.0000
  V   V24       1.0  0.0007471251604039415  0.00874999960634174  0.9991539991213915  1.0000
  Sn  Sn5       1.0  0.006666666332959484  0.0037499996555490226  0.9990317992586767  1.0000
  Sn  Sn6       1.0  0.001666666583239871  0.0037499996555490226  0.9993043994813054  1.0000
  Sn  Sn7       1.0  0.003333333166479742  0.00874999960634174  0.9990317992586767  1.0000
  Sn  Sn8       1.0  0.008333332726593002  0.00874999960634174  0.9993043994813054  1.0000
