data_image0
_chemical_formula_structural       COAl24Cu12
_chemical_formula_sum              "C1 O1 Al24 Cu12"
_cell_length_a       13.722413631156732
_cell_length_b       4.863857746124268
_cell_length_c       104.71526336669922
_cell_angle_alpha    90.0
_cell_angle_beta     108.43494756372927
_cell_angle_gamma    90.0

_space_group_name_H-M_alt    "P 1"
_space_group_IT_number       1

loop_
  _space_group_symop_operation_xyz
  'x, y, z'

loop_
  _atom_site_type_symbol
  _atom_site_label
  _atom_site_symmetry_multiplicity
  _atom_site_fract_x
  _atom_site_fract_y
  _atom_site_fract_z
  _atom_site_occupancy
  C   C1        1.0  0.0032286972656802287  0.006249999846817465  0.00016008683045155817  1.0000
  O   O1        1.0  0.0032286972656802287  0.006249999846817465  0.00027468296790315373  1.0000
  Al  Al1       1.0  0.008242779341058904  0.006249999846817465  0.999382151629244  1.0000
  Al  Al2       1.0  0.0049094460916657276  0.006249999846817465  0.9996584185774183  1.0000
  Al  Al3       1.0  0.0015761129853523632  0.006249999846817465  0.9999346858161253  1.0000
  Al  Al4       1.0  0.007192037255437454  0.0012500000268069436  3.678169764160615e-05  1.0000
  Al  Al5       1.0  0.003858704292203902  0.0012500000268069436  0.9994842473454532  1.0000
  Al  Al6       1.0  0.000525370971270819  0.0012500000268069436  0.9997605145752663  1.0000
  Al  Al7       1.0  0.000525370971270819  0.0012500000268069436  2.1771410211012625e-05  1.0000
  Al  Al8       1.0  0.007192037255437454  0.0012500000268069436  0.9994692372203651  1.0000
  Al  Al9       1.0  0.003858704292203902  0.0012500000268069436  0.9997455041803979  1.0000
  Al  Al10      1.0  0.00947462841920918  0.006249999846817465  0.9998476000559849  1.0000
  Al  Al11      1.0  0.006141295742135253  0.006249999846817465  0.00012386731247965958  1.0000
  Al  Al12      1.0  0.0028079622065824515  0.006249999846817465  0.9995713329365743  1.0000
  Al  Al13      1.0  0.008242779341058904  0.0012500000268069436  0.999796552143053  1.0000
  Al  Al14      1.0  0.0049094460916657276  0.0012500000268069436  7.281937583064403e-05  1.0000
  Al  Al15      1.0  0.0015761129853523632  0.0012500000268069436  0.999520285017713  1.0000
  Al  Al16      1.0  0.000525370971270819  0.006249999846817465  0.999346113776854  1.0000
  Al  Al17      1.0  0.007192037255437454  0.006249999846817465  0.9996223808992293  1.0000
  Al  Al18      1.0  0.003858704292203902  0.006249999846817465  0.9998986481438655  1.0000
  Al  Al19      1.0  0.007192037255437454  0.006249999846817465  0.999883637734174  1.0000
  Al  Al20      1.0  0.003858704292203902  0.006249999846817465  0.999331103666589  1.0000
  Al  Al21      1.0  0.000525370971270819  0.006249999846817465  0.9996073706117987  1.0000
  Al  Al22      1.0  0.00947462841920918  0.0012500000268069436  0.999433199542176  1.0000
  Al  Al23      1.0  0.006141295742135253  0.0012500000268069436  0.9997094665140673  1.0000
  Al  Al24      1.0  0.0028079622065824515  0.0012500000268069436  0.9999857337349866  1.0000
  Cu  Cu1       1.0  0.008858704166293667  0.0037499999846817463  2.9276510583579565e-05  1.0000
  Cu  Cu2       1.0  0.00552537091690049  0.0037499999846817463  0.9994767421465367  1.0000
  Cu  Cu3       1.0  0.0021920376675073137  0.0037499999846817463  0.9997530093793144  1.0000
  Cu  Cu4       1.0  0.008858704166293667  0.00875000009190952  2.9276510583579565e-05  1.0000
  Cu  Cu5       1.0  0.00552537091690049  0.00875000009190952  0.9994767421465367  1.0000
  Cu  Cu6       1.0  0.0021920376675073137  0.00875000009190952  0.9997530093793144  1.0000
  Cu  Cu7       1.0  0.008858704166293667  0.00875000009190952  0.9996148757121712  1.0000
  Cu  Cu8       1.0  0.00552537091690049  0.00875000009190952  0.999891142944949  1.0000
  Cu  Cu9       1.0  0.0021920376675073137  0.00875000009190952  0.9993386085809021  1.0000
  Cu  Cu10      1.0  0.008858704166293667  0.0037499999846817463  0.9996148757121712  1.0000
  Cu  Cu11      1.0  0.00552537091690049  0.0037499999846817463  0.999891142944949  1.0000
  Cu  Cu12      1.0  0.0021920376675073137  0.0037499999846817463  0.9993386085809021  1.0000
