data_image0
_chemical_formula_structural       CORe4V8W4Re4V8W4
_chemical_formula_sum              "C1 O1 Re8 V16 W8"
_cell_length_a       8.654194831848145
_cell_length_b       6.119439601898193
_cell_length_c       104.61677551269531
_cell_angle_alpha    90.0
_cell_angle_beta     90.0
_cell_angle_gamma    90.0

_space_group_name_H-M_alt    "P 1"
_space_group_IT_number       1

loop_
  _space_group_symop_operation_xyz
  'x, y, z'

loop_
  _atom_site_type_symbol
  _atom_site_label
  _atom_site_symmetry_multiplicity
  _atom_site_fract_x
  _atom_site_fract_y
  _atom_site_fract_z
  _atom_site_occupancy
  C   C1        1.0  0.003750000533771201  0.009999986241949227  0.00015865283288835668  1.0000
  O   O1        1.0  0.003750000533771201  0.009999986241949227  0.0002733574226626693  1.0000
  Re  Re1       1.0  0.0012500238173875466  0.005000687111146349  0.9997990101563702  1.0000
  Re  Re2       1.0  0.0012499983125942675  0.005000013818927104  0.9993842972893738  1.0000
  Re  Re3       1.0  0.003750000533771201  0.009999986241949227  0.9999930912999468  1.0000
  Re  Re4       1.0  0.003749998381467971  1.3850000404037517e-08  0.9995911044909035  1.0000
  V   V1        1.0  0.003749998381467971  0.0025000139102416  0.9993842972893738  1.0000
  V   V2        1.0  0.0037499811630421283  0.0025110136544636086  0.9997992386231953  1.0000
  V   V3        1.0  0.003749998381467971  0.007500013879803436  0.9993842972893738  1.0000
  V   V4        1.0  0.0037499884808731114  0.007488940475221094  0.9997992454601078  1.0000
  V   V5        1.0  0.0012500029400462126  0.007519461432458053  0.9999993635973974  1.0000
  V   V6        1.0  0.0012499983125942675  0.007500013879803436  0.9995911044909035  1.0000
  V   V7        1.0  0.0012500007877429824  0.002480647018725365  0.999999362457912  1.0000
  V   V8        1.0  0.0012499983125942675  0.0025000139102416  0.9995911044909035  1.0000
  W   W1        1.0  0.0012500010029733053  0.009999146757346752  0.9997973675881487  1.0000
  W   W2        1.0  0.0012499983125942675  1.3850000404037517e-08  0.9993842972893738  1.0000
  W   W3        1.0  0.0037500013946924933  0.005000140137313626  0.0  1.0000
  W   W4        1.0  0.003749998381467971  0.005000013818927104  0.9995911044909035  1.0000
  Re  Re5       1.0  0.006250023417059146  0.005000687111146349  0.9997990101563702  1.0000
  Re  Re6       1.0  0.006249998019881028  0.005000013818927104  0.9993842972893738  1.0000
  Re  Re7       1.0  0.008750000241057963  0.009999986241949227  0.9999930912999468  1.0000
  Re  Re8       1.0  0.008749997658294085  1.3850000404037517e-08  0.9995911044909035  1.0000
  V   V9        1.0  0.008749997658294085  0.0025000139102416  0.9993842972893738  1.0000
  V   V10       1.0  0.008749981300789536  0.0025110136544636086  0.9997992386231953  1.0000
  V   V11       1.0  0.008749997658294085  0.007500013879803436  0.9993842972893738  1.0000
  V   V12       1.0  0.008749988188159872  0.007488940475221094  0.9997992454601078  1.0000
  V   V13       1.0  0.0062500027549481346  0.007519461432458053  0.9999993635973974  1.0000
  V   V14       1.0  0.006249998019881028  0.007500013879803436  0.9995911044909035  1.0000
  V   V15       1.0  0.006250000602644905  0.002480647018725365  0.999999362457912  1.0000
  V   V16       1.0  0.006249998019881028  0.0025000139102416  0.9995911044909035  1.0000
  W   W5        1.0  0.006250000602644905  0.009999146757346752  0.9997973675881487  1.0000
  W   W6        1.0  0.006249998019881028  1.3850000404037517e-08  0.9993842972893738  1.0000
  W   W7        1.0  0.008750001101979253  0.005000140137313626  0.0  1.0000
  W   W8        1.0  0.008749997658294085  0.005000013818927104  0.9995911044909035  1.0000
