data_image0
_chemical_formula_structural       HMn2Ga4Se8
_chemical_formula_sum              "H1 Mn2 Ga4 Se8"
_cell_length_a       5.691519737243652
_cell_length_b       5.691519737243652
_cell_length_c       102.77224731445312
_cell_angle_alpha    90.0
_cell_angle_beta     90.0
_cell_angle_gamma    90.0

_space_group_name_H-M_alt    "P 1"
_space_group_IT_number       1

loop_
  _space_group_symop_operation_xyz
  'x, y, z'

loop_
  _atom_site_type_symbol
  _atom_site_label
  _atom_site_symmetry_multiplicity
  _atom_site_fract_x
  _atom_site_fract_y
  _atom_site_fract_z
  _atom_site_occupancy
  H   H1        1.0  0.0022649817375729954  0.009959979884771944  0.0  1.0000
  Mn  Mn1       1.0  0.009999998062580858  4.002144791961163e-05  0.9998818604588494  1.0000
  Mn  Mn2       1.0  0.005000001322157657  0.005040019827233318  0.9993446137908554  1.0000
  Ga  Ga1       1.0  0.005000001322157657  0.005040019499966571  0.9998922546505847  1.0000
  Ga  Ga2       1.0  0.005000001322157657  4.001994709476459e-05  0.9990788784089701  1.0000
  Ga  Ga3       1.0  1.5999999271031537e-09  4.001994709476459e-05  0.9993446137908554  1.0000
  Ga  Ga4       1.0  1.5999999271031537e-09  0.005040019827233318  0.9996103488827565  1.0000
  Se  Se1       1.0  0.007914846129752877  0.0024712555136330635  9.373447540875053e-06  1.0000
  Se  Se2       1.0  0.007664485104786518  0.007510580062662628  0.9992022382447201  1.0000
  Se  Se3       1.0  0.0023355173758954225  0.0025694597554373824  0.9992022382447201  1.0000
  Se  Se4       1.0  0.002085158478162919  0.007608783649933453  9.373447540875053e-06  1.0000
  Se  Se5       1.0  0.0025294414139950946  0.007704503937128926  0.9994869890470065  1.0000
  Se  Se6       1.0  0.002444805160616445  0.002311176420695842  0.9997508630206575  1.0000
  Se  Se7       1.0  0.007555197647332242  0.007768863561037541  0.9997508630206575  1.0000
  Se  Se8       1.0  0.007470561230320219  0.0023755357173377103  0.9994869890470065  1.0000
