data_image0
_chemical_formula_structural       HAl6Fe2Al6Fe2Al6Fe2Al6Fe2
_chemical_formula_sum              "H1 Al24 Fe8"
_cell_length_a       5.40400655563711
_cell_length_b       8.794946670532227
_cell_length_c       107.82804870605469
_cell_angle_alpha    90.0
_cell_angle_beta     60.00000045583412
_cell_angle_gamma    90.0

_space_group_name_H-M_alt    "P 1"
_space_group_IT_number       1

loop_
  _space_group_symop_operation_xyz
  'x, y, z'

loop_
  _atom_site_type_symbol
  _atom_site_label
  _atom_site_symmetry_multiplicity
  _atom_site_fract_x
  _atom_site_fract_y
  _atom_site_fract_z
  _atom_site_occupancy
  H   H1        1.0  0.0011694303614883858  0.004999999745856995  0.9999706958934683  1.0000
  Al  Al1       1.0  0.0022566360073185223  0.001250000571821762  0.9994090404394291  1.0000
  Al  Al2       1.0  0.0022566360073185223  0.001250000571821762  0.9991514843463031  1.0000
  Al  Al3       1.0  0.007117536191427826  0.001250000571821762  0.9994090400113884  1.0000
  Al  Al4       1.0  0.00883056937583128  0.0037500003388573405  0.9992373362931778  1.0000
  Al  Al5       1.0  0.00883056937583128  0.0037500003388573405  0.9989937233955176  1.0000
  Al  Al6       1.0  0.003969668992721723  0.0037500003388573405  0.9992373361734301  1.0000
  Fe  Fe1       1.0  0.00387693606868829  0.0037500003388573405  0.998989075697312  1.0000
  Fe  Fe2       1.0  0.007210269513461765  0.001250000571821762  0.9991561317631347  1.0000
  Al  Al7       1.0  0.002135821162541522  0.0012499985598563028  0.9999203046429476  1.0000
  Al  Al8       1.0  0.0022354150183077686  0.0012500015248580324  0.9996547721189736  1.0000
  Al  Al9       1.0  0.007038146234377748  0.0012500022661084647  0.999920290463623  1.0000
  Al  Al10      1.0  0.008810329458069264  0.0037499969502839355  0.9997429515391619  1.0000
  Al  Al11      1.0  0.00883056937583128  0.0037500003388573405  0.9994948918335288  1.0000
  Al  Al12      1.0  0.0039039977151332198  0.003750001186000692  0.9997428665676755  1.0000
  Fe  Fe3       1.0  0.00387693606868829  0.0037500003388573405  0.9994902444117106  1.0000
  Fe  Fe4       1.0  0.007304749261718612  0.0012500002541430055  0.9996481656145598  1.0000
  Al  Al13      1.0  0.0022566360073185223  0.0062500004235716755  0.9994090404394291  1.0000
  Al  Al14      1.0  0.0022566360073185223  0.0062500004235716755  0.9991514843463031  1.0000
  Al  Al15      1.0  0.007117536191427826  0.0062500004235716755  0.9994090400113884  1.0000
  Al  Al16      1.0  0.00883056937583128  0.008750000508286011  0.9992373362931778  1.0000
  Al  Al17      1.0  0.00883056937583128  0.008750000508286011  0.9989937233955176  1.0000
  Al  Al18      1.0  0.003969668992721723  0.008750000508286011  0.9992373361734301  1.0000
  Fe  Fe5       1.0  0.00387693606868829  0.008750000508286011  0.998989075697312  1.0000
  Fe  Fe6       1.0  0.007210269513461765  0.0062500004235716755  0.9991561317631347  1.0000
  Al  Al19      1.0  0.002135821162541522  0.006249998305713297  0.9999203046429476  1.0000
  Al  Al20      1.0  0.0022354150183077686  0.006250001270715027  0.9996547721189736  1.0000
  Al  Al21      1.0  0.007038146234377748  0.006250002117858379  0.999920290463623  1.0000
  Al  Al22      1.0  0.008810329458069264  0.008749996272569255  0.9997429515391619  1.0000
  Al  Al23      1.0  0.00883056937583128  0.008750000508286011  0.9994948918335288  1.0000
  Al  Al24      1.0  0.0039039977151332198  0.008750000508286011  0.9997428665676755  1.0000
  Fe  Fe7       1.0  0.00387693606868829  0.008750000508286011  0.9994902444117106  1.0000
  Fe  Fe8       1.0  0.007304749261718612  0.00625  0.9996481656145598  1.0000
