data_image0
_chemical_formula_structural       Al8Os4H
_chemical_formula_sum              "Al8 Os4 H1"
_cell_length_a       4.523580551147461
_cell_length_b       4.759120252739642
_cell_length_c       101.89351654052734
_cell_angle_alpha    93.30317913548357
_cell_angle_beta     90.0
_cell_angle_gamma    90.0

_space_group_name_H-M_alt    "P 1"
_space_group_IT_number       1

loop_
  _space_group_symop_operation_xyz
  'x, y, z'

loop_
  _atom_site_type_symbol
  _atom_site_label
  _atom_site_symmetry_multiplicity
  _atom_site_fract_x
  _atom_site_fract_y
  _atom_site_fract_z
  _atom_site_occupancy
  Al  Al1       1.0  0.0012500004035281844  0.0018625088970141259  5.012419092073697e-06  1.0000
  Al  Al2       1.0  0.006250000164705382  0.008820370369952198  0.999790346823473  1.0000
  Al  Al3       1.0  0.0012500004035281844  0.006351319970274037  0.9998751410604388  1.0000
  Al  Al4       1.0  0.006249999752941928  0.008699399141681512  4.7923982750199736e-05  1.0000
  Al  Al5       1.0  0.001249999991764731  0.006326506857123989  0.9996049319449448  1.0000
  Al  Al6       1.0  0.006250000164705382  0.0038265072021153716  0.9994093018942073  1.0000
  Al  Al7       1.0  0.001249999991764731  0.0011796292301714257  0.9994783431155336  1.0000
  Al  Al8       1.0  0.006250000164705382  0.003679629081197874  0.9996739731667986  1.0000
  Os  Os1       1.0  0.001249999991764731  0.0012530682906301744  0.9997372676981013  1.0000
  Os  Os2       1.0  0.006249999752941928  0.0038845570986831917  0.9999254662499297  1.0000
  Os  Os3       1.0  0.001249999991764731  0.006253067992683071  0.9993460073629046  1.0000
  Os  Os4       1.0  0.006250000164705382  0.008753068039727351  0.9995416377071821  1.0000
  H   H1        1.0  0.008750000559998297  0.005117938534478614  4.7516314109849524e-05  1.0000
