data_image0
_chemical_formula_structural       CORe2Rh6Re2Rh6
_chemical_formula_sum              "C1 O1 Re4 Rh12"
_cell_length_a       5.511938571929932
_cell_length_b       5.51193870827881
_cell_length_c       100.56421661376953
_cell_angle_alpha    90.0
_cell_angle_beta     90.0
_cell_angle_gamma    119.99999918170633

_space_group_name_H-M_alt    "P 1"
_space_group_IT_number       1

loop_
  _space_group_symop_operation_xyz
  'x, y, z'

loop_
  _atom_site_type_symbol
  _atom_site_label
  _atom_site_symmetry_multiplicity
  _atom_site_fract_x
  _atom_site_fract_y
  _atom_site_fract_z
  _atom_site_occupancy
  C   C1        1.0  0.006672402673939943  0.003327605723384683  0.00017223158986926258  1.0000
  O   O1        1.0  0.006672402673939943  0.003327605723384683  0.00029155857040730806  1.0000
  Re  Re1       1.0  0.003339057435505041  0.006660948270807139  0.9995670454744171  1.0000
  Re  Re2       1.0  0.00667239094071804  0.003327614698146815  0.9993499546165461  1.0000
  Rh  Rh1       1.0  0.0016953106308325253  0.003373454661462108  0.9993499546165461  1.0000
  Rh  Rh2       1.0  0.00662655076477477  0.008304694685272604  0.9993499546165461  1.0000
  Rh  Rh3       1.0  0.0016953105563417515  0.008304694685272604  0.9993499546165461  1.0000
  Rh  Rh4       1.0  0.008316137745390556  0.006615108307491846  0.9995670454744171  1.0000
  Rh  Rh5       1.0  0.0033848974472347297  0.0016838680885778244  0.9995670454744171  1.0000
  Rh  Rh6       1.0  0.008316137824632362  0.0016838680885778244  0.9995670454744171  1.0000
  Re  Re3       1.0  0.0033390554726819353  0.00666093734500976  0.9999911574740464  1.0000
  Re  Re4       1.0  0.006672365937708343  0.003327624843530095  0.9997915628923927  1.0000
  Rh  Rh7       1.0  0.0016839552866678342  0.003350654473368575  0.9997841312943185  1.0000
  Rh  Rh8       1.0  0.006649359313057672  0.008316083268211419  0.9997841315906697  1.0000
  Rh  Rh9       1.0  0.0016838624048042944  0.008316131653885523  0.9997841321833719  1.0000
  Rh  Rh10      1.0  0.008285968222780552  0.006554801027619317  0.9999999976291907  1.0000
  Rh  Rh11      1.0  0.0034452487468117623  0.001714026606102204  0.0  1.0000
  Rh  Rh12      1.0  0.008285991052227515  0.001713989536432527  0.999999998221893  1.0000
