data_image0
_chemical_formula_structural       Fe8Sb24H
_chemical_formula_sum              "Fe8 Sb24 H1"
_cell_length_a       7.981544017791748
_cell_length_b       7.9815442895232955
_cell_length_c       30.898578643798828
_cell_angle_alpha    90.0
_cell_angle_beta     90.0
_cell_angle_gamma    109.47122115504766

_space_group_name_H-M_alt    "P 1"
_space_group_IT_number       1

loop_
  _space_group_symop_operation_xyz
  'x, y, z'

loop_
  _atom_site_type_symbol
  _atom_site_label
  _atom_site_symmetry_multiplicity
  _atom_site_fract_x
  _atom_site_fract_y
  _atom_site_fract_z
  _atom_site_occupancy
  Fe  Fe1       1.0  0.007518283032105858  0.007528744510088574  0.9965283249825893  1.0000
  Fe  Fe2       1.0  0.002518282873083218  0.0025287444110784845  0.998637452303288  1.0000
  Fe  Fe3       1.0  0.005052951724622826  6.451999811598652e-05  0.9996826094743476  1.0000
  Fe  Fe4       1.0  1.8282878745702857e-05  0.005028744708108752  0.9975828886429386  1.0000
  Fe  Fe5       1.0  0.002518282873083218  0.0025287444110784845  0.9965283249825893  1.0000
  Fe  Fe6       1.0  0.007518283032105858  0.007528744510088574  0.998637452303288  1.0000
  Fe  Fe7       1.0  0.009981717896499605  0.004994177315663808  0.999682652395524  1.0000
  Fe  Fe8       1.0  0.0050182828796556155  2.8744500806377774e-05  0.9975828886429386  1.0000
  Sb  Sb1       1.0  0.00916225680984963  0.0008847709888715828  0.9965085419371955  1.0000
  Sb  Sb2       1.0  0.00416225642278875  0.005884771087881672  0.9986176690167641  1.0000
  Sb  Sb3       1.0  7.577167270812945e-05  0.006777105457467801  0.9961716984733997  1.0000
  Sb  Sb4       1.0  0.005075771716793578  0.0017771057297455459  0.9982808255529683  1.0000
  Sb  Sb5       1.0  0.0057645573794233886  0.007534103431166919  3.500294279160041e-05  1.0000
  Sb  Sb6       1.0  0.0009106176315985975  0.002518154291936872  0.9979197321067345  1.0000
  Sb  Sb7       1.0  0.007499746193304839  0.0025464597912899004  0.999922796377803  1.0000
  Sb  Sb8       1.0  0.002565181638292386  0.007481845906083307  0.9979439820891725  1.0000
  Sb  Sb9       1.0  0.006766644083316704  8.623350241913331e-05  0.9989940785713475  1.0000
  Sb  Sb10      1.0  0.00176664403334152  0.005086233431255632  0.9968849512506486  1.0000
  Sb  Sb11      1.0  0.003269921776497956  0.009971255588921516  0.9961716984733997  1.0000
  Sb  Sb12      1.0  0.008269921915604248  0.0049712554899114265  0.9982808255529683  1.0000
  Sb  Sb13      1.0  0.0025142381670863806  0.0042845888380302665  3.4977865250299476e-05  1.0000
  Sb  Sb14      1.0  0.007528873102576666  0.009136409447431822  0.9979197321067345  1.0000
  Sb  Sb15      1.0  0.004960793797087752  0.008280383067658902  0.9968849512506486  1.0000
  Sb  Sb16      1.0  0.009960794266657047  0.003280383216174035  0.9989940785713475  1.0000
  Sb  Sb17      1.0  0.0058743095990848385  0.004172717833285386  0.996548108027983  1.0000
  Sb  Sb18      1.0  0.000874309610409808  0.009172718427345922  0.9986572351075517  1.0000
  Sb  Sb19      1.0  0.009125948346518298  0.007539334629230187  0.9972460451791428  1.0000
  Sb  Sb20      1.0  0.003630084970041735  0.0021674127835965788  0.9993717849241723  1.0000
  Sb  Sb21      1.0  0.002539005231612532  0.007511173189556955  0.9993355170123263  1.0000
  Sb  Sb22      1.0  0.007471384458796832  0.002575643262608975  0.9972217947144444  1.0000
  Sb  Sb23      1.0  0.0025076926240465876  0.00092107928809132  0.9972460451791428  1.0000
  Sb  Sb24      1.0  0.007880542254433682  0.006418125567129791  0.999371325330002  1.0000
  H   H1        1.0  0.0062656006815070145  0.008810168233191097  0.0  1.0000
