data_image0
_chemical_formula_structural       HSi16Rh16
_chemical_formula_sum              "H1 Si16 Rh16"
_cell_length_a       6.417975521161973
_cell_length_b       8.975349471081865
_cell_length_c       106.40836334228516
_cell_angle_alpha    74.22605072360142
_cell_angle_beta     68.15077068444681
_cell_angle_gamma    70.2664763889432

_space_group_name_H-M_alt    "P 1"
_space_group_IT_number       1

loop_
  _space_group_symop_operation_xyz
  'x, y, z'

loop_
  _atom_site_type_symbol
  _atom_site_label
  _atom_site_symmetry_multiplicity
  _atom_site_fract_x
  _atom_site_fract_y
  _atom_site_fract_z
  _atom_site_occupancy
  H   H1        1.0  0.00016861182917833988  0.007486908760623013  0.9998187487226098  1.0000
  Si  Si1       1.0  0.0017001898544460204  0.005489421691493151  0.9993166150294928  1.0000
  Si  Si2       1.0  0.009310687317366246  0.0029869358877846414  0.9995292501531787  1.0000
  Si  Si3       1.0  0.004200190189460939  0.0079894214052473  0.9991027670501901  1.0000
  Si  Si4       1.0  0.006966771155563078  0.0005915548400430983  0.9997316193705976  1.0000
  Si  Si5       1.0  0.0031568095770512622  0.009408444965399174  0.9997129550531036  1.0000
  Si  Si6       1.0  0.0007406115800243447  0.00710116206083732  0.999082571287259  1.0000
  Si  Si7       1.0  0.005671507958020315  0.002116195460432751  0.9995117414575282  1.0000
  Si  Si8       1.0  0.008240611516759288  0.004601161899824027  0.999296419270717  1.0000
  Si  Si9       1.0  0.006012368793106885  0.008677243353113685  0.9993754506414314  1.0000
  Si  Si10      1.0  0.0034803455420030346  0.006095119704294295  0.9995976762011743  1.0000
  Si  Si11      1.0  0.008512368403193691  0.001177242870073809  0.9991616024140416  1.0000
  Si  Si12      1.0  0.0010123687086463773  0.003677242807457529  0.9989477544302748  1.0000
  Si  Si13      1.0  0.009046994723529867  0.006261267084011211  0.9996627619354025  1.0000
  Si  Si14      1.0  0.006428432569731642  0.0039133408464759305  0.9990237356666728  1.0000
  Si  Si15      1.0  0.0014284326553272084  0.00891334072124337  0.9994514318931871  1.0000
  Si  Si16      1.0  0.003928432719091982  0.001413340685462638  0.9992375836453581  1.0000
  Rh  Rh1       1.0  0.007093491846174241  0.00921795908481934  0.9995552840193381  1.0000
  Rh  Rh2       1.0  0.004992443618018637  0.006711532704418754  0.9997443116314129  1.0000
  Rh  Rh3       1.0  0.009603718917047834  0.001676362271384025  0.9993403445502375  1.0000
  Rh  Rh4       1.0  0.0021037190232356027  0.004176362320582531  0.9991264965683797  1.0000
  Rh  Rh5       1.0  0.007848904023001044  0.005971273199940095  0.9994785023118442  1.0000
  Rh  Rh6       1.0  0.005564901195322507  0.003396021687875004  0.9996811734388359  1.0000
  Rh  Rh7       1.0  0.00033708258292561153  0.008414220984488796  0.9992726897547735  1.0000
  Rh  Rh8       1.0  0.0028370825179222484  0.0009142212841524221  0.9990588420622935  1.0000
  Rh  Rh9       1.0  0.0029920230408010205  0.0009180787824584191  0.9994785233215611  1.0000
  Rh  Rh10      1.0  0.0003194760250674638  0.008281234739517992  0.9996977126813633  1.0000
  Rh  Rh11      1.0  0.005380249015724158  0.0033998325594151928  0.9992739206425006  1.0000
  Rh  Rh12      1.0  0.007880248639524834  0.005899832496798913  0.9990600726740348  1.0000
  Rh  Rh13      1.0  0.0020276380352075444  0.004198654610859641  0.9995460473984583  1.0000
  Rh  Rh14      1.0  0.009831388253774455  0.0015421371185831267  0.9997439544681774  1.0000
  Rh  Rh15      1.0  0.004560552269635725  0.006690751255531559  0.9993391136545084  1.0000
  Rh  Rh16      1.0  0.007060551807590976  0.00919075141654485  0.999125265682842  1.0000
