data_image0
_chemical_formula_structural       COCu15Pd5Cu15Pd5
_chemical_formula_sum              "C1 O1 Cu30 Pd10"
_cell_length_a       5.322392463684082
_cell_length_b       8.415441929474579
_cell_length_c       109.11144256591797
_cell_angle_alpha    75.03678257753869
_cell_angle_beta     90.0
_cell_angle_gamma    71.56505239395923

_space_group_name_H-M_alt    "P 1"
_space_group_IT_number       1

loop_
  _space_group_symop_operation_xyz
  'x, y, z'

loop_
  _atom_site_type_symbol
  _atom_site_label
  _atom_site_symmetry_multiplicity
  _atom_site_fract_x
  _atom_site_fract_y
  _atom_site_fract_z
  _atom_site_occupancy
  C   C1        1.0  0.0052559089229510325  0.009755187128893367  0.00014689419482854206  1.0000
  O   O1        1.0  0.0052559089229510325  0.009755187128893367  0.0002568737170170187  1.0000
  Cu  Cu1       1.0  1.2465867679913437e-05  0.005244812560755177  0.9990976797463116  1.0000
  Cu  Cu2       1.0  0.00801246605237177  0.009244812219368575  0.9992171644183067  1.0000
  Cu  Cu3       1.0  0.0020124658182176505  0.0012448126596797037  0.9989781948060084  1.0000
  Cu  Cu4       1.0  0.006012465964314484  0.003244812731448478  0.9993366490951566  1.0000
  Cu  Cu5       1.0  0.004012466135007785  0.007244812390061876  0.99885871012433  1.0000
  Cu  Cu6       1.0  0.009012465958880863  0.002244812574333053  0.999157422089565  1.0000
  Cu  Cu7       1.0  0.007012466008343128  0.0062448124754085265  0.9992769067567316  1.0000
  Cu  Cu8       1.0  0.0010124662616724425  0.008244812304715226  0.9990379374078866  1.0000
  Cu  Cu9       1.0  0.005012466041516879  0.0002448127450263541  0.99939639143841  1.0000
  Cu  Cu10      1.0  0.0030124660909791423  0.004244812646101827  0.998918452462755  1.0000
  Cu  Cu11      1.0  0.005012466049661134  0.005244812560755177  0.9990976797463116  1.0000
  Cu  Cu12      1.0  0.0030124662203544353  0.009244812219368575  0.9992171644183067  1.0000
  Cu  Cu13      1.0  0.007012466000198871  0.0012448126596797037  0.9989781948060084  1.0000
  Cu  Cu14      1.0  0.0010124657823332632  0.003244812731448478  0.9993366490951566  1.0000
  Cu  Cu15      1.0  0.00901246596702512  0.007244812390061876  0.99885871012433  1.0000
  Pd  Pd1       1.0  0.008012465922996476  0.004244812646101827  0.998918452462755  1.0000
  Pd  Pd2       1.0  0.006012466093689777  0.008244812304715226  0.9990379374078866  1.0000
  Pd  Pd3       1.0  1.2465706426457675e-05  0.0002448127450263541  0.99939639143841  1.0000
  Pd  Pd4       1.0  0.004012466126863529  0.002244812574333053  0.999157422089565  1.0000
  Pd  Pd5       1.0  0.002012466176325792  0.0062448124754085265  0.9992769067567316  1.0000
  Cu  Cu16      1.0  1.2465867679913437e-05  0.005244812560755177  0.9996951031159967  1.0000
  Cu  Cu17      1.0  0.008035663792655258  0.009199309846638587  0.9998167749378464  1.0000
  Cu  Cu18      1.0  0.0020124658182176505  0.0012448126596797037  0.99957561844883  1.0000
  Cu  Cu19      1.0  0.0060533443393811235  0.003273643169425143  0.999929032549696  1.0000
  Cu  Cu20      1.0  0.004012466135007785  0.007244812390061876  0.9994561337671517  1.0000
  Cu  Cu21      1.0  0.00903145741722367  0.0022089490389408523  0.9997540475658903  1.0000
  Cu  Cu22      1.0  0.007036257017589365  0.00619800177732072  0.9998718060501846  1.0000
  Cu  Cu23      1.0  0.0010124662616724425  0.008244812304715226  0.9996353607775718  1.0000
  Cu  Cu24      1.0  0.004949093441532703  0.0003688184276953574  0.9999819254115841  1.0000
  Cu  Cu25      1.0  0.0030124660909791423  0.004244812646101827  0.9995158761055767  1.0000
  Cu  Cu26      1.0  0.005012466049661134  0.005244812560755177  0.9996951031159967  1.0000
  Cu  Cu27      1.0  0.003038850731783536  0.009199309846638587  0.9998168038903201  1.0000
  Cu  Cu28      1.0  0.007012466000198871  0.0012448126596797037  0.99957561844883  1.0000
  Cu  Cu29      1.0  0.0009434240388198631  0.00327339391841183  0.9999290478924979  1.0000
  Cu  Cu30      1.0  0.00901246596702512  0.007244812390061876  0.9994561337671517  1.0000
  Pd  Pd6       1.0  0.008012465922996476  0.004244812646101827  0.9995158761055767  1.0000
  Pd  Pd7       1.0  0.006012466093689777  0.008244812304715226  0.9996353607775718  1.0000
  Pd  Pd8       1.0  0.009987534420995538  0.0002938707331659784  0.9999889085193726  1.0000
  Pd  Pd9       1.0  0.004011548477011694  0.002249808747854773  0.9997515076580069  1.0000
  Pd  Pd10      1.0  0.0020285515763008503  0.006213711865021696  0.9998754979257146  1.0000
