data_image0
_chemical_formula_structural       HSi10Ni10Si10Ni10
_chemical_formula_sum              "H1 Si20 Ni20"
_cell_length_a       7.260462132153877
_cell_length_b       5.643429670259508
_cell_length_c       109.21186828613281
_cell_angle_alpha    68.83595282708247
_cell_angle_beta     74.7787363685218
_cell_angle_gamma    76.92941982836084

_space_group_name_H-M_alt    "P 1"
_space_group_IT_number       1

loop_
  _space_group_symop_operation_xyz
  'x, y, z'

loop_
  _atom_site_type_symbol
  _atom_site_label
  _atom_site_symmetry_multiplicity
  _atom_site_fract_x
  _atom_site_fract_y
  _atom_site_fract_z
  _atom_site_occupancy
  H   H1        1.0  0.001588072214855397  0.0029872122492665965  0.9999165506983099  1.0000
  Si  Si1       1.0  0.0023131153718737355  0.003064426434103067  0.9990043210384382  1.0000
  Si  Si2       1.0  0.006313115025398758  0.0010644265872245381  0.9991240027194774  1.0000
  Si  Si3       1.0  0.008313114911746619  0.005064426459861819  0.9988846400448961  1.0000
  Si  Si4       1.0  0.0003131154717598574  0.009064426153618877  0.9992436837645304  1.0000
  Si  Si5       1.0  0.004313115504478305  0.007064426485620571  0.9987649583562213  1.0000
  Si  Si6       1.0  0.004688141847711013  0.005939346086831127  0.9990192780253029  1.0000
  Si  Si7       1.0  0.008688142318473068  0.003939346061072375  0.9991389596954151  1.0000
  Si  Si8       1.0  0.0006881421745692641  0.00793934611258988  0.9988995968870396  1.0000
  Si  Si9       1.0  0.002688142000596607  0.0019393458564334004  0.999258640705874  1.0000
  Si  Si10      1.0  0.006688141753675602  0.009939345780588185  0.9987799153537165  1.0000
  Ni  Ni1       1.0  0.0033143727148479602  6.065405193520524e-05  0.9988844891767648  1.0000
  Ni  Ni2       1.0  0.007314372720926913  0.008060654093480137  0.9990041708973938  1.0000
  Ni  Ni3       1.0  0.009314372793210965  0.0020606540162038806  0.9987648081749709  1.0000
  Ni  Ni4       1.0  0.0013143728214773322  0.006060653709960939  0.9991238519038865  1.0000
  Ni  Ni5       1.0  0.00531437285419578  0.0040606540419626325  0.99924353357497  1.0000
  Ni  Ni6       1.0  0.0036868845372269934  0.00894311817272862  0.9991391098919365  1.0000
  Ni  Ni7       1.0  0.007686884437008724  0.006943118504730314  0.9992587915653403  1.0000
  Ni  Ni8       1.0  0.009686884509292774  0.000943118427454058  0.9990194288429174  1.0000
  Ni  Ni9       1.0  0.001686884631262405  0.004943118478971562  0.9987800660299012  1.0000
  Ni  Ni10      1.0  0.00568688457027759  0.00294311845321281  0.9988997471635239  1.0000
  Si  Si11      1.0  0.0022928970409997387  0.0030498190751046443  0.9996079838542409  1.0000
  Si  Si12      1.0  0.006243259723482041  0.0010053841287071194  0.9997306784027974  1.0000
  Si  Si13      1.0  0.008313114911746619  0.005064426459861819  0.9994830465785178  1.0000
  Si  Si14      1.0  0.0004580086510152548  0.009147050928556074  0.9998382070098831  1.0000
  Si  Si15      1.0  0.004313115504478305  0.007064426485620571  0.9993633654356139  1.0000
  Si  Si16      1.0  0.004735972589138849  0.005992352947749161  0.9996135696445521  1.0000
  Si  Si17      1.0  0.00876391579130182  0.0036014420356182404  0.9997659348527581  1.0000
  Si  Si18      1.0  0.0006881421745692641  0.00793934611258988  0.9994980034206613  1.0000
  Si  Si19      1.0  0.0027205798121513734  0.0019860872586656792  0.9998592002058855  1.0000
  Si  Si20      1.0  0.006688141753675602  0.009939345780588185  0.999378322433109  1.0000
  Ni  Ni11      1.0  0.0033143727148479602  6.065405193520524e-05  0.9994828962561574  1.0000
  Ni  Ni12      1.0  0.0073467158923132955  0.0080787288667184  0.9995967064510943  1.0000
  Ni  Ni13      1.0  0.009314372793210965  0.0020606540162038806  0.9993632147085927  1.0000
  Ni  Ni14      1.0  0.0014509105484427894  0.006123767661230783  0.9997183817888435  1.0000
  Ni  Ni15      1.0  0.0053669332998237335  0.0042709939296123435  0.9998219075341704  1.0000
  Ni  Ni16      1.0  0.0037448998794796383  0.009105519949455146  0.9997273154987942  1.0000
  Ni  Ni17      1.0  0.007968096001912875  0.007190785328483391  0.9998284296695259  1.0000
  Ni  Ni18      1.0  0.00968549389731124  0.001043049685072352  0.9996142269933717  1.0000
  Ni  Ni19      1.0  0.001686884631262405  0.004943118478971562  0.999378472563523  1.0000
  Ni  Ni20      1.0  0.00568688457027759  0.00294311845321281  0.9994981542429164  1.0000
