data_image0
_chemical_formula_structural       COPt18W6Pt18W6
_chemical_formula_sum              "C1 O1 Pt36 W12"
_cell_length_a       8.797968886401822
_cell_length_b       8.990444624009346
_cell_length_c       108.95027160644531
_cell_angle_alpha    108.02655117954558
_cell_angle_beta     71.56505019508067
_cell_angle_gamma    78.71331702155817

_space_group_name_H-M_alt    "P 1"
_space_group_IT_number       1

loop_
  _space_group_symop_operation_xyz
  'x, y, z'

loop_
  _atom_site_type_symbol
  _atom_site_label
  _atom_site_symmetry_multiplicity
  _atom_site_fract_x
  _atom_site_fract_y
  _atom_site_fract_z
  _atom_site_occupancy
  C   C1        1.0  0.009209729958613423  0.009639622041845156  1.0977756015570417e-05  1.0000
  O   O1        1.0  0.009209729958613423  0.009639622041845156  0.00012111997174167758  1.0000
  Pt  Pt1       1.0  0.00791666668639162  0.002534261901236026  0.9991506339250373  1.0000
  Pt  Pt2       1.0  0.0012500000941133502  0.002534261901236026  0.9993208744159461  1.0000
  Pt  Pt3       1.0  0.004583333501835081  0.002534261901236026  0.9989803936253789  1.0000
  Pt  Pt4       1.0  0.0012500000941133502  0.002534261901236026  0.9990655138736828  1.0000
  Pt  Pt5       1.0  0.004583333501835081  0.002534261901236026  0.9992357541676423  1.0000
  Pt  Pt6       1.0  0.00791666668639162  0.002534261901236026  0.9994059944673007  1.0000
  Pt  Pt7       1.0  0.0004166666665352642  3.4262047839509675e-05  0.9991506337542221  1.0000
  Pt  Pt8       1.0  0.0037500000184656967  3.4262047839509675e-05  0.9993208745966875  1.0000
  Pt  Pt9       1.0  0.007083333649352616  3.4262047839509675e-05  0.9989803932533404  1.0000
  Pt  Pt10      1.0  0.009583333705934526  0.007534261449616649  0.9992357541508978  1.0000
  Pt  Pt11      1.0  0.002916666890491067  0.007534261449616649  0.9994059946475055  1.0000
  Pt  Pt12      1.0  0.006250000075047607  0.007534261449616649  0.999065513862637  1.0000
  Pt  Pt13      1.0  0.006250000075047607  0.007534261449616649  0.9993208744049004  1.0000
  Pt  Pt14      1.0  0.009583333705934526  0.007534261449616649  0.9989803936086344  1.0000
  Pt  Pt15      1.0  0.002916666890491067  0.007534261449616649  0.9991506341052421  1.0000
  Pt  Pt16      1.0  0.008750000680896463  0.005034261560217313  0.9990655134779751  1.0000
  Pt  Pt17      1.0  0.0020833334191226243  0.005034261560217313  0.9992357539859802  1.0000
  Pt  Pt18      1.0  0.005416667050009544  0.005034261560217313  0.9994059948213223  1.0000
  W   W1        1.0  0.0004166666665352642  3.4262047839509675e-05  0.9994059948435666  1.0000
  W   W2        1.0  0.0037500000184656967  3.4262047839509675e-05  0.999065513507343  1.0000
  W   W3        1.0  0.007083333649352616  3.4262047839509675e-05  0.999235754342685  1.0000
  W   W4        1.0  0.008750000680896463  0.005034261560217313  0.9993208745673197  1.0000
  W   W5        1.0  0.0020833334191226243  0.005034261560217313  0.9989803934437168  1.0000
  W   W6        1.0  0.005416667050009544  0.005034261560217313  0.9991506337319777  1.0000
  Pt  Pt19      1.0  0.007918384221387307  0.002490540998058619  0.9996566063846907  1.0000
  Pt  Pt20      1.0  0.0012869195873396048  0.0024174424848530177  0.9998299668062499  1.0000
  Pt  Pt21      1.0  0.004583333501835081  0.002534261901236026  0.9994911147099057  1.0000
  Pt  Pt22      1.0  0.0012500000941133502  0.002534261901236026  0.9995762355052907  1.0000
  Pt  Pt23      1.0  0.004596658748165148  0.002467045730410322  0.9997451012979182  1.0000
  Pt  Pt24      1.0  0.00797224789286341  0.0023011445045155155  0.9999051663580323  1.0000
  Pt  Pt25      1.0  0.00043359031442303424  0.009961669054264637  0.999655020184201  1.0000
  Pt  Pt26      1.0  0.0037895341919481234  0.0001226501451198681  0.9998340364027098  1.0000
  Pt  Pt27      1.0  0.007083333649352616  3.4262047839509675e-05  0.9994911148849484  1.0000
  Pt  Pt28      1.0  0.009530053568634603  0.007639449593290391  0.9997677423679336  1.0000
  Pt  Pt29      1.0  0.0030753713399071085  0.007563789983467117  0.9999037479732648  1.0000
  Pt  Pt30      1.0  0.006250000075047607  0.007534261449616649  0.999576235494245  1.0000
  Pt  Pt31      1.0  0.006335611173983256  0.007597315809636379  0.9998366664509686  1.0000
  Pt  Pt32      1.0  0.009583333705934526  0.007534261449616649  0.9994911146931612  1.0000
  Pt  Pt33      1.0  0.002923324551408647  0.007439764242593088  0.999656494045488  1.0000
  Pt  Pt34      1.0  0.008750000680896463  0.005034261560217313  0.999576235109583  1.0000
  Pt  Pt35      1.0  0.0019490316171444301  0.005059390030998859  0.9997643059328705  1.0000
  Pt  Pt36      1.0  0.005569915305335857  0.0050805884915320005  0.9999128098775274  1.0000
  W   W7        1.0  0.0006629421213689037  0.009929308221752501  0.9998886796872758  1.0000
  W   W8        1.0  0.0037500000184656967  3.4262047839509675e-05  0.9995762351389509  1.0000
  W   W9        1.0  0.007087853473228328  0.009965737315342607  0.9997468418971639  1.0000
  W   W10       1.0  0.008750930358053367  0.004919310603795862  0.9998133466901862  1.0000
  W   W11       1.0  0.0020833334191226243  0.005034261560217313  0.9994911150753248  1.0000
  W   W12       1.0  0.0053419108943291195  0.0050499567160616115  0.9996785763800112  1.0000
