data_image0
_chemical_formula_structural       CONi9Pt3Ni9Pt3Ni9Pt3Ni9Pt3
_chemical_formula_sum              "C1 O1 Ni36 Pt12"
_cell_length_a       8.211497560968905
_cell_length_b       7.3445868492126465
_cell_length_c       106.35385131835938
_cell_angle_alpha    90.0
_cell_angle_beta     108.43494882292202
_cell_angle_gamma    90.0

_space_group_name_H-M_alt    "P 1"
_space_group_IT_number       1

loop_
  _space_group_symop_operation_xyz
  'x, y, z'

loop_
  _atom_site_type_symbol
  _atom_site_label
  _atom_site_symmetry_multiplicity
  _atom_site_fract_x
  _atom_site_fract_y
  _atom_site_fract_z
  _atom_site_occupancy
  C   C1        1.0  0.0015364331652659238  0.003749999898556845  0.00019201326921513618  1.0000
  O   O1        1.0  0.0015364331652659238  0.003749999898556845  0.0003048443907019757  1.0000
  Ni  Ni1       1.0  0.0008333333381154095  0.003749999898556845  2.034641522983893e-05  1.0000
  Ni  Ni2       1.0  0.0074999999234867795  0.003749999898556845  0.9996948038386881  1.0000
  Ni  Ni3       1.0  0.004166666571025141  0.003749999898556845  0.9998575754057181  1.0000
  Ni  Ni4       1.0  0.0074999999234867795  0.003749999898556845  0.9999389610666374  1.0000
  Ni  Ni5       1.0  0.004166666571025141  0.003749999898556845  0.00010173207323025139  1.0000
  Ni  Ni6       1.0  0.0008333333381154095  0.003749999898556845  0.9997761897477176  1.0000
  Ni  Ni7       1.0  0.009166667317029038  0.0012500000507215774  0.00010173224836684739  1.0000
  Ni  Ni8       1.0  0.005833333486359773  0.0012500000507215774  0.9997761899082596  1.0000
  Ni  Ni9       1.0  0.0025000001338981353  0.0012500000507215774  0.9999389609148523  1.0000
  Pt  Pt1       1.0  0.009166667317029038  0.0012500000507215774  0.9998575750204175  1.0000
  Pt  Pt2       1.0  0.005833333486359773  0.0012500000507215774  2.0346575771718597e-05  1.0000
  Pt  Pt3       1.0  0.0025000001338981353  0.0012500000507215774  0.9996948042473401  1.0000
  Ni  Ni10      1.0  0.0008333333381154095  0.003749999898556845  0.9995320325197683  1.0000
  Ni  Ni11      1.0  0.0074999999234867795  0.003749999898556845  0.9992064899432266  1.0000
  Ni  Ni12      1.0  0.004166666571025141  0.003749999898556845  0.999369261230038  1.0000
  Ni  Ni13      1.0  0.0074999999234867795  0.003749999898556845  0.9994506468909574  1.0000
  Ni  Ni14      1.0  0.004166666571025141  0.003749999898556845  0.9996134181777687  1.0000
  Ni  Ni15      1.0  0.0008333333381154095  0.003749999898556845  0.9992878755720376  1.0000
  Ni  Ni16      1.0  0.009166667317029038  0.0012500000507215774  0.9996134183529054  1.0000
  Ni  Ni17      1.0  0.005833333486359773  0.0012500000507215774  0.9992878757325795  1.0000
  Ni  Ni18      1.0  0.0025000001338981353  0.0012500000507215774  0.9994506470193909  1.0000
  Pt  Pt4       1.0  0.009166667317029038  0.0012500000507215774  0.9993692614051746  1.0000
  Pt  Pt5       1.0  0.005833333486359773  0.0012500000507215774  0.9995320326803102  1.0000
  Pt  Pt6       1.0  0.0025000001338981353  0.0012500000507215774  0.9992064900716601  1.0000
  Ni  Ni19      1.0  0.0008333333381154095  0.00874999959422738  2.034641522983893e-05  1.0000
  Ni  Ni20      1.0  0.0074999999234867795  0.00874999959422738  0.9996948038386881  1.0000
  Ni  Ni21      1.0  0.004166666571025141  0.00874999959422738  0.9998575754057181  1.0000
  Ni  Ni22      1.0  0.0074999999234867795  0.00874999959422738  0.9999389610666374  1.0000
  Ni  Ni23      1.0  0.004166666571025141  0.00874999959422738  0.00010173207323025139  1.0000
  Ni  Ni24      1.0  0.0008333333381154095  0.00874999959422738  0.9997761897477176  1.0000
  Ni  Ni25      1.0  0.009166667317029038  0.00625  0.00010173224836684739  1.0000
  Ni  Ni26      1.0  0.005833333486359773  0.00625  0.9997761899082596  1.0000
  Ni  Ni27      1.0  0.0025000001338981353  0.00625  0.9999389609148523  1.0000
  Pt  Pt7       1.0  0.009166667317029038  0.00625  0.9998575750204175  1.0000
  Pt  Pt8       1.0  0.005833333486359773  0.00625  2.0346575771718597e-05  1.0000
  Pt  Pt9       1.0  0.0025000001338981353  0.00625  0.9996948042473401  1.0000
  Ni  Ni28      1.0  0.0008333333381154095  0.00874999959422738  0.9995320325197683  1.0000
  Ni  Ni29      1.0  0.0074999999234867795  0.00874999959422738  0.9992064899432266  1.0000
  Ni  Ni30      1.0  0.004166666571025141  0.00874999959422738  0.999369261230038  1.0000
  Ni  Ni31      1.0  0.0074999999234867795  0.00874999959422738  0.9994506468909574  1.0000
  Ni  Ni32      1.0  0.004166666571025141  0.00874999959422738  0.9996134181777687  1.0000
  Ni  Ni33      1.0  0.0008333333381154095  0.00874999959422738  0.9992878755720376  1.0000
  Ni  Ni34      1.0  0.009166667317029038  0.00625  0.9996134183529054  1.0000
  Ni  Ni35      1.0  0.005833333486359773  0.00625  0.9992878757325795  1.0000
  Ni  Ni36      1.0  0.0025000001338981353  0.00625  0.9994506470193909  1.0000
  Pt  Pt10      1.0  0.009166667317029038  0.00625  0.9993692614051746  1.0000
  Pt  Pt11      1.0  0.005833333486359773  0.00625  0.9995320326803102  1.0000
  Pt  Pt12      1.0  0.0025000001338981353  0.00625  0.9992064900716601  1.0000
