data_image0
_chemical_formula_structural       COAl3Cu2Al3Cu2Al3Cu2Al3Cu2
_chemical_formula_sum              "C1 O1 Al12 Cu8"
_cell_length_a       8.360539327018195
_cell_length_b       5.082241058349609
_cell_length_c       103.44215393066406
_cell_angle_alpha    90.0
_cell_angle_beta     59.9999995674505
_cell_angle_gamma    90.0

_space_group_name_H-M_alt    "P 1"
_space_group_IT_number       1

loop_
  _space_group_symop_operation_xyz
  'x, y, z'

loop_
  _atom_site_type_symbol
  _atom_site_label
  _atom_site_symmetry_multiplicity
  _atom_site_fract_x
  _atom_site_fract_y
  _atom_site_fract_z
  _atom_site_occupancy
  C   C1        1.0  0.0006000843703377014  0.009294246397995466  0.9999186999605864  1.0000
  O   O1        1.0  0.0006000843703377014  0.009294246397995466  3.470648460070659e-05  1.0000
  Al  Al1       1.0  3.916829934842e-05  0.0007057538603875625  0.9992010648901641  1.0000
  Al  Al2       1.0  0.0017058348885167721  0.004226079809718911  0.9993357707674779  1.0000
  Al  Al3       1.0  0.0033725015500383226  0.00718542748225034  0.9990663593420007  1.0000
  Cu  Cu1       1.0  0.0017058348885167721  0.009114436733034147  0.9993357707674779  1.0000
  Cu  Cu2       1.0  0.0033725015500383226  0.002297070558935103  0.9990663593420007  1.0000
  Al  Al4       1.0  0.009960830970366633  0.0011055466658600132  0.99961785031868  1.0000
  Al  Al5       1.0  0.0018137816155461082  0.004415731119265372  0.99972236852793  1.0000
  Al  Al6       1.0  0.0034330798923124686  0.0072563717650357025  0.9994606824391418  1.0000
  Cu  Cu3       1.0  0.0017961795294821588  0.009294246397995466  0.9997253553200435  1.0000
  Cu  Cu4       1.0  0.0034258980816997717  0.0023162486268243176  0.9994618075997391  1.0000
  Al  Al7       1.0  0.005039168082931965  0.0007057538603875625  0.9992010652215888  1.0000
  Al  Al8       1.0  0.006705834873081424  0.004226079809718911  0.9993357705145683  1.0000
  Al  Al9       1.0  0.00837250114871925  0.00718542748225034  0.9990663596808976  1.0000
  Cu  Cu5       1.0  0.006705834873081424  0.009114436733034147  0.9993357705145683  1.0000
  Cu  Cu6       1.0  0.00837250114871925  0.002297070558935103  0.9990663596808976  1.0000
  Al  Al10      1.0  0.004960831628941522  0.0011055466658600132  0.999617849969387  1.0000
  Al  Al11      1.0  0.0068137814714828515  0.004415731119265372  0.9997223682802183  1.0000
  Al  Al12      1.0  0.008433079748249212  0.0072563717650357025  0.9994606827676424  1.0000
  Cu  Cu7       1.0  0.00679617951404681  0.009294246397995466  0.9997253550671339  1.0000
  Cu  Cu8       1.0  0.00842589819489233  0.0023162486268243176  0.9994618079178437  1.0000
