data_image0
_chemical_formula_structural       HFe6Ni12Se24
_chemical_formula_sum              "H1 Fe6 Ni12 Se24"
_cell_length_a       6.353834298277371
_cell_length_b       8.229643982034123
_cell_length_c       104.81184387207031
_cell_angle_alpha    85.92062944315691
_cell_angle_beta     84.90016079275004
_cell_angle_gamma    80.45299123053636

_space_group_name_H-M_alt    "P 1"
_space_group_IT_number       1

loop_
  _space_group_symop_operation_xyz
  'x, y, z'

loop_
  _atom_site_type_symbol
  _atom_site_label
  _atom_site_symmetry_multiplicity
  _atom_site_fract_x
  _atom_site_fract_y
  _atom_site_fract_z
  _atom_site_occupancy
  H   H1        1.0  0.0053435054684218  0.009389465516756356  3.643587422776757e-05  1.0000
  Fe  Fe1       1.0  0.008204534758614265  0.003943868546099737  0.9991433968383951  1.0000
  Fe  Fe2       1.0  0.006204534700617631  0.007277201946867948  0.9989219725565437  1.0000
  Fe  Fe3       1.0  0.0002045346937875829  0.0006105349154399012  0.999364821139253  1.0000
  Fe  Fe4       1.0  0.004298357804062481  0.003823503957622962  0.9998111262400576  1.0000
  Fe  Fe5       1.0  0.0022045346911994538  0.007277201946867948  0.9995862454019562  1.0000
  Fe  Fe6       1.0  0.005850459429027835  0.0010590763518348546  0.9999623434715381  1.0000
  Ni  Ni1       1.0  0.0011748146938056275  0.005768800228193738  0.9992127166996887  1.0000
  Ni  Ni2       1.0  0.009174814416433112  0.0091021340887452  0.9989912923993909  1.0000
  Ni  Ni3       1.0  0.007174814614061415  0.002435466827425528  0.9987698681369206  1.0000
  Ni  Ni4       1.0  0.00723425484517048  0.008785603665542157  0.9992955012580181  1.0000
  Ni  Ni5       1.0  0.005234254406281543  0.0021189366341141107  0.9990740767133527  1.0000
  Ni  Ni6       1.0  0.003234254594721803  0.005452270264773947  0.9988526524288892  1.0000
  Ni  Ni7       1.0  0.006971675897055931  0.00594113894535109  0.9998667323038846  1.0000
  Ni  Ni8       1.0  0.0051748144070149354  0.0091021340887452  0.9996555658134857  1.0000
  Ni  Ni9       1.0  0.0031748146046432376  0.002435466827425528  0.9994341415510155  1.0000
  Ni  Ni10      1.0  0.003653036832644088  0.008664235600118224  0.9999319193564842  1.0000
  Ni  Ni11      1.0  0.0012342546911814094  0.0021189366341141107  0.9997383498415204  1.0000
  Ni  Ni12      1.0  0.009234254314531025  0.005452270264773947  0.9995169255430416  1.0000
  Se  Se1       1.0  0.007605235676658773  0.005835547882431083  0.9993170579642834  1.0000
  Se  Se2       1.0  0.005605235522899837  0.009168881742982546  0.9990956336803798  1.0000
  Se  Se3       1.0  0.003605236014846184  0.0025022144816628728  0.9988742094163235  1.0000
  Se  Se4       1.0  0.000803833420840268  0.008718856011304812  0.9991911599958025  1.0000
  Se  Se5       1.0  0.008803833299814818  0.002052188979876766  0.9989697354323638  1.0000
  Se  Se6       1.0  0.006803833193937033  0.005385522610536602  0.9987483111494863  1.0000
  Se  Se7       1.0  0.0046136039069037205  0.005231619822428619  0.999072933699938  1.0000
  Se  Se8       1.0  0.002613603753144784  0.00856495368298008  0.9988515091316933  1.0000
  Se  Se9       1.0  0.0066136040127815045  0.0018982861917687822  0.9992943576984743  1.0000
  Se  Se10      1.0  0.007795465494331542  0.009322784071307277  0.9987710114131494  1.0000
  Se  Se11      1.0  0.0017954652924613203  0.0026561172697708566  0.9992138602799667  1.0000
  Se  Se12      1.0  0.009795465552328174  0.005989450670539067  0.9989924356950007  1.0000
  Se  Se13      1.0  0.003628144623071901  0.005845714609695956  0.9999798391903796  1.0000
  Se  Se14      1.0  0.001598213818660022  0.009133612689299754  0.9997531420223151  1.0000
  Se  Se15      1.0  0.009605236323291492  0.0025022144816628728  0.999538482811645  1.0000
  Se  Se16      1.0  0.0071789678651706405  0.008813294571667983  0.9998596062215279  1.0000
  Se  Se17      1.0  0.00480383329039664  0.002052188979876766  0.9996340085621175  1.0000
  Se  Se18      1.0  0.0028038331845188563  0.005385522610536602  0.99941258427924  1.0000
  Se  Se19      1.0  0.0006136038974855428  0.005231619822428619  0.9997372068296917  1.0000
  Se  Se20      1.0  0.008613604355908137  0.00856495368298008  0.9995157825254288  1.0000
  Se  Se21      1.0  0.002357629333546033  0.0015764921698985777  0.9999692514029079  1.0000
  Se  Se22      1.0  0.003795465484913365  0.009322784071307277  0.9994352845429031  1.0000
  Se  Se23      1.0  0.007806556510122066  0.002955804453108935  0.9998892271586823  1.0000
  Se  Se24      1.0  0.005795465542909997  0.005989450670539067  0.9996567088247544  1.0000
