data_image0
_chemical_formula_structural       HV2Ni4V2Ni4V2Ni4V2Ni4V2Ni4V2Ni4V2Ni4V2Ni4
_chemical_formula_sum              "H1 V16 Ni32"
_cell_length_a       7.205855846405029
_cell_length_b       9.18521149982927
_cell_length_c       105.57182312011719
_cell_angle_alpha    123.59004708133358
_cell_angle_beta     90.0
_cell_angle_gamma    90.0

_space_group_name_H-M_alt    "P 1"
_space_group_IT_number       1

loop_
  _space_group_symop_operation_xyz
  'x, y, z'

loop_
  _atom_site_type_symbol
  _atom_site_label
  _atom_site_symmetry_multiplicity
  _atom_site_fract_x
  _atom_site_fract_y
  _atom_site_fract_z
  _atom_site_occupancy
  H   H1        1.0  0.002499997673585664  0.0011777154962030344  0.0002545278303850275  1.0000
  V   V1        1.0  1.0499999941454682e-09  7.466524976115501e-05  0.9994017400469205  1.0000
  V   V2        1.0  0.002500001033961927  0.0050746652220701755  0.999281402790637  1.0000
  Ni  Ni1       1.0  0.002500001033961927  0.0017535612834450752  0.9993622162879863  1.0000
  Ni  Ni2       1.0  1.0499999941454682e-09  0.003395769287282611  0.9993209265543316  1.0000
  Ni  Ni3       1.0  1.0499999941454682e-09  0.006753561400294923  0.9992418790386604  1.0000
  Ni  Ni4       1.0  0.002500001033961927  0.008395769647569641  0.9994412638266245  1.0000
  V   V3        1.0  1.0499999941454682e-09  7.466524976115501e-05  0.9996424148391158  1.0000
  V   V4        1.0  0.002500001033961927  0.0050746652220701755  0.9995220773005381  1.0000
  Ni  Ni5       1.0  0.002500001033961927  0.0017535612834450752  0.9996028907978872  1.0000
  Ni  Ni6       1.0  1.0499999941454682e-09  0.003395769287282611  0.9995616010642326  1.0000
  Ni  Ni7       1.0  1.0499999941454682e-09  0.006753561400294923  0.9994825535485613  1.0000
  Ni  Ni8       1.0  0.002500001033961927  0.008395769647569641  0.9996819383365255  1.0000
  V   V5        1.0  0.009999998966038074  8.803955165245083e-05  0.9998825249001849  1.0000
  V   V6        1.0  0.002500001033961927  0.0050746652220701755  0.999762751810439  1.0000
  Ni  Ni9       1.0  0.002500001033961927  0.0017535612834450752  0.9998435653077883  1.0000
  Ni  Ni10      1.0  1.0499999941454682e-09  0.003395769287282611  0.9998022758564279  1.0000
  Ni  Ni11      1.0  1.0499999941454682e-09  0.006753561400294923  0.9997232280584624  1.0000
  Ni  Ni12      1.0  0.0025000015509428907  0.008362045807757758  0.9999240727708901  1.0000
  V   V7        1.0  0.009999997932076145  0.009925335128479368  0.00010493800394877435  1.0000
  V   V8        1.0  0.002500002843395299  0.005011654428540679  0.9999932303667669  1.0000
  Ni  Ni13      1.0  0.002499998966038073  0.0016368781901566437  7.879097123671282e-05  1.0000
  Ni  Ni14      1.0  0.009999997932076145  0.0033142465566219463  3.6169459509025786e-05  1.0000
  Ni  Ni15      1.0  0.009999997932076145  0.006699847472777725  0.9999672946352249  1.0000
  Ni  Ni16      1.0  0.0024999992245285547  0.008379061093088884  0.00015405604268140644  1.0000
  V   V9        1.0  0.0050000010339619275  7.466524976115501e-05  0.9994017400469205  1.0000
  V   V10       1.0  0.007500001033961927  0.0050746652220701755  0.999281402790637  1.0000
  Ni  Ni17      1.0  0.007500001033961927  0.0017535612834450752  0.9993622162879863  1.0000
  Ni  Ni18      1.0  0.0050000010339619275  0.003395769287282611  0.9993209265543316  1.0000
  Ni  Ni19      1.0  0.0050000010339619275  0.006753561400294923  0.9992418790386604  1.0000
  Ni  Ni20      1.0  0.007500001033961927  0.008395769647569641  0.9994412638266245  1.0000
  V   V11       1.0  0.0050000010339619275  7.466524976115501e-05  0.9996424148391158  1.0000
  V   V12       1.0  0.007500001033961927  0.0050746652220701755  0.9995220773005381  1.0000
  Ni  Ni21      1.0  0.007500001033961927  0.0017535612834450752  0.9996028907978872  1.0000
  Ni  Ni22      1.0  0.0050000010339619275  0.003395769287282611  0.9995616010642326  1.0000
  Ni  Ni23      1.0  0.0050000010339619275  0.006753561400294923  0.9994825535485613  1.0000
  Ni  Ni24      1.0  0.007500001033961927  0.008395769647569641  0.9996819383365255  1.0000
  V   V13       1.0  0.004999998966038073  8.803955165245083e-05  0.9998825249001849  1.0000
  V   V14       1.0  0.007500001033961927  0.0050746652220701755  0.999762751810439  1.0000
  Ni  Ni25      1.0  0.007500001033961927  0.0017535612834450752  0.9998435653077883  1.0000
  Ni  Ni26      1.0  0.0050000010339619275  0.003395769287282611  0.9998022758564279  1.0000
  Ni  Ni27      1.0  0.0050000010339619275  0.006753561400294923  0.9997232280584624  1.0000
  Ni  Ni28      1.0  0.00750000155094289  0.008362045807757758  0.9999240727708901  1.0000
  V   V15       1.0  0.004999997415095182  0.009925335128479368  0.00010493800394877435  1.0000
  V   V16       1.0  0.007500002584904818  0.005011654428540679  0.9999932303667669  1.0000
  Ni  Ni29      1.0  0.007499998966038073  0.0016368781901566437  7.879097123671282e-05  1.0000
  Ni  Ni30      1.0  0.0049999984490571095  0.0033142465566219463  3.6169459509025786e-05  1.0000
  Ni  Ni31      1.0  0.004999997932076146  0.006699847472777725  0.9999672946352249  1.0000
  Ni  Ni32      1.0  0.007499998966038073  0.008379061093088884  0.00015405604268140644  1.0000
