data_image0
_chemical_formula_structural       HIn12Rh4
_chemical_formula_sum              "H1 In12 Rh4"
_cell_length_a       7.151092529296875
_cell_length_b       7.151092529296875
_cell_length_c       99.2171630859375
_cell_angle_alpha    90.0
_cell_angle_beta     90.0
_cell_angle_gamma    90.0

_space_group_name_H-M_alt    "P 1"
_space_group_IT_number       1

loop_
  _space_group_symop_operation_xyz
  'x, y, z'

loop_
  _atom_site_type_symbol
  _atom_site_label
  _atom_site_symmetry_multiplicity
  _atom_site_fract_x
  _atom_site_fract_y
  _atom_site_fract_z
  _atom_site_occupancy
  H   H1        1.0  0.009618621977114246  0.0024952003399462876  9.543323715961254e-05  1.0000
  In  In1       1.0  0.005380616012659392  0.0007591388049605892  8.41049069436396e-09  1.0000
  In  In2       1.0  0.0053813771060313145  0.0007588896653951395  0.9995921209384154  1.0000
  In  In3       1.0  0.0003813772271498703  0.005758889316365324  0.9995921209384154  1.0000
  In  In4       1.0  0.000381848645310893  0.005757660939793803  0.0  1.0000
  In  In5       1.0  0.006899156697291605  0.0072766689076256144  0.9994128576371331  1.0000
  In  In6       1.0  0.00873731231822944  0.0024033403811934014  0.9997973444207247  1.0000
  In  In7       1.0  0.002025996825191466  0.009115055304993128  0.9997973570364607  1.0000
  In  In8       1.0  0.0018991566556164033  0.009241110287720258  0.9994032880005963  1.0000
  In  In9       1.0  0.008863597556446227  0.002276669126420424  0.9994032880005963  1.0000
  In  In10      1.0  0.0038635977752410357  0.004241110246045056  0.9994128576371331  1.0000
  In  In11      1.0  0.0069508396777993465  0.007328424298796393  0.9997696618913534  1.0000
  In  In12      1.0  0.003812721470357129  0.00419021440591033  0.9997695895010585  1.0000
  Rh  Rh1       1.0  0.008855396918622267  0.009232739823449175  0.999942512493856  1.0000
  Rh  Rh2       1.0  0.006931581567071602  0.004208684855325037  0.9995921209384154  1.0000
  Rh  Rh3       1.0  0.0038311723845210165  0.007309094298345634  0.9995921209384154  1.0000
  Rh  Rh4       1.0  0.0019074956030161643  0.0022853388707340595  0.9999425899905203  1.0000
