data_image0
_chemical_formula_structural       COCu27Zn9
_chemical_formula_sum              "C1 O1 Cu27 Zn9"
_cell_length_a       7.029313704895298
_cell_length_b       8.924733322069123
_cell_length_c       98.73802185058594
_cell_angle_alpha    94.73602836084018
_cell_angle_beta     93.00449167424657
_cell_angle_gamma    106.33741875415949

_space_group_name_H-M_alt    "P 1"
_space_group_IT_number       1

loop_
  _space_group_symop_operation_xyz
  'x, y, z'

loop_
  _atom_site_type_symbol
  _atom_site_label
  _atom_site_symmetry_multiplicity
  _atom_site_fract_x
  _atom_site_fract_y
  _atom_site_fract_z
  _atom_site_occupancy
  C   C1        1.0  0.0038716044044803835  0.0027820049850021933  0.00021778326410766324  1.0000
  O   O1        1.0  0.0038716044044803835  0.0027820049850021933  0.00033931723950828403  1.0000
  Cu  Cu1       1.0  0.004840549779727188  0.0062718220731694625  0.9993558926230897  1.0000
  Cu  Cu2       1.0  0.008476913506791335  0.0062718220731694625  0.999444090475687  1.0000
  Cu  Cu3       1.0  0.0012041861853366615  0.0062718220731694625  0.999267694469155  1.0000
  Cu  Cu4       1.0  0.0060685417185098525  0.003815465922188258  0.9993048286476509  1.0000
  Cu  Cu5       1.0  0.009704904914879514  0.003815465922188258  0.999393026498268  1.0000
  Cu  Cu6       1.0  0.0033412687905381194  0.003815465922188258  0.9994812244540429  1.0000
  Cu  Cu7       1.0  0.007854982259731677  0.008728178661386149  0.99934815776464  1.0000
  Cu  Cu8       1.0  0.0014913462680639035  0.008728178661386149  0.9994363557209099  1.0000
  Cu  Cu9       1.0  0.004218618930688393  0.008728178661386149  0.9992599599135278  1.0000
  Cu  Cu10      1.0  0.005749640578819604  0.0062718220731694625  0.999620486282079  1.0000
  Cu  Cu11      1.0  0.009386004305883752  0.0062718220731694625  0.9997086844365086  1.0000
  Cu  Cu12      1.0  0.0021132770673500906  0.0062718220731694625  0.9995322884302861  1.0000
  Cu  Cu13      1.0  0.0069776325176022684  0.003815465922188258  0.9995694226084726  1.0000
  Cu  Cu14      1.0  0.0006139959952400081  0.003815465922188258  0.99965762026093  1.0000
  Cu  Cu15      1.0  0.004250359589630535  0.003815465922188258  0.9997458184148645  1.0000
  Cu  Cu16      1.0  0.008764073589518579  0.008728178661386149  0.9996127517274419  1.0000
  Cu  Cu17      1.0  0.00240043713349313  0.008728178661386149  0.9997009496819791  1.0000
  Cu  Cu18      1.0  0.00512770986245443  0.008728178661386149  0.9995245535730122  1.0000
  Cu  Cu19      1.0  0.006658731643259262  0.0062718220731694625  0.9998850802438908  1.0000
  Cu  Cu20      1.0  0.00029509525357062434  0.0062718220731694625  0.9999732778968432  1.0000
  Cu  Cu21      1.0  0.003022367982531925  0.0062718220731694625  0.999796882391541  1.0000
  Cu  Cu22      1.0  0.007886723316694684  0.003815465922188258  0.9998340162674619  1.0000
  Cu  Cu23      1.0  0.0015230868938376399  0.003815465922188258  0.9999222142221229  1.0000
  Cu  Cu24      1.0  0.005159450654070194  0.003815465922188258  1.0412376676322823e-05  1.0000
  Cu  Cu25      1.0  0.009673164388610994  0.008728178661386149  0.9998773453864312  1.0000
  Cu  Cu26      1.0  0.003309528015506559  0.008728178661386149  0.9999655433412779  1.0000
  Cu  Cu27      1.0  0.006036800661546845  0.008728178661386149  0.9997891475338339  1.0000
  Zn  Zn1       1.0  0.003022367835065079  0.0012718219376264624  0.9993117936471835  1.0000
  Zn  Zn2       1.0  0.006658731562129228  0.0012718219376264624  0.9993999914997809  1.0000
  Zn  Zn3       1.0  0.0002950951558563866  0.0012718219376264624  0.9994881894545037  1.0000
  Zn  Zn4       1.0  0.003931458634157494  0.0012718219376264624  0.9995763873061728  1.0000
  Zn  Zn5       1.0  0.007567822361221643  0.0012718219376264624  0.9996645851587702  1.0000
  Zn  Zn6       1.0  0.0012041860378698157  0.0012718219376264624  0.9997527831138024  1.0000
  Zn  Zn7       1.0  0.004840549698597154  0.0012718219376264624  0.9998409812679846  1.0000
  Zn  Zn8       1.0  0.008476913160314058  0.0012718219376264624  0.9999291791195919  1.0000
  Zn  Zn9       1.0  0.002113276903299042  0.0012718219376264624  1.7377074871675987e-05  1.0000
