data_image0
_chemical_formula_structural       COCo4Pt4Co4Pt4Co4Pt4Co4Pt4
_chemical_formula_sum              "C1 O1 Co16 Pt16"
_cell_length_a       7.878593200666571
_cell_length_b       7.585897445678711
_cell_length_c       100.34358978271484
_cell_angle_alpha    90.0
_cell_angle_beta     76.07141477908408
_cell_angle_gamma    76.07141477908408

_space_group_name_H-M_alt    "P 1"
_space_group_IT_number       1

loop_
  _space_group_symop_operation_xyz
  'x, y, z'

loop_
  _atom_site_type_symbol
  _atom_site_label
  _atom_site_symmetry_multiplicity
  _atom_site_fract_x
  _atom_site_fract_y
  _atom_site_fract_z
  _atom_site_occupancy
  C   C1        1.0  0.009085073660295609  0.0013949630326706766  0.9999955135499007  1.0000
  O   O1        1.0  0.009085073660295609  0.0013949630326706766  0.0001151028963121126  1.0000
  Co  Co1       1.0  0.00591492595752205  0.000937500105688374  0.9996992113462863  1.0000
  Co  Co2       1.0  0.0009149259801512676  0.0021875001000310696  0.9997937103749209  1.0000
  Co  Co3       1.0  0.0009149259801512676  0.0046875002964634795  0.999604712079194  1.0000
  Co  Co4       1.0  0.00591492595752205  0.003437500302120784  0.9998882090480077  1.0000
  Pt  Pt1       1.0  0.008414925977636909  0.00031250010065965927  0.9998409595330964  1.0000
  Pt  Pt2       1.0  0.00341492593740719  0.001562500110717089  0.999935458562919  1.0000
  Pt  Pt3       1.0  0.00341492593740719  0.0040625003071494995  0.9997464608611976  1.0000
  Pt  Pt4       1.0  0.008414925977636909  0.0028125002970920696  0.999651961831375  1.0000
  Co  Co5       1.0  0.00591492595752205  0.000937500105688374  0.9993212150518351  1.0000
  Co  Co6       1.0  0.0009149259801512676  0.0021875001000310696  0.9994157140804698  1.0000
  Co  Co7       1.0  0.0009149259801512676  0.0046875002964634795  0.9992267160817456  1.0000
  Co  Co8       1.0  0.00591492595752205  0.003437500302120784  0.9995102130505593  1.0000
  Pt  Pt5       1.0  0.008414925977636909  0.00031250010065965927  0.999462963535648  1.0000
  Pt  Pt6       1.0  0.00341492593740719  0.001562500110717089  0.9995574625654707  1.0000
  Pt  Pt7       1.0  0.00341492593740719  0.0040625003071494995  0.9993684645667466  1.0000
  Pt  Pt8       1.0  0.008414925977636909  0.0028125002970920696  0.9992739655369238  1.0000
  Co  Co9       1.0  0.00591492595752205  0.005937500007472169  0.9996992113462863  1.0000
  Co  Co10      1.0  0.0009149259801512676  0.0071875000018148645  0.9997937103749209  1.0000
  Co  Co11      1.0  0.0009149259801512676  0.00968749970716625  0.999604712079194  1.0000
  Co  Co12      1.0  0.00591492595752205  0.008437499712823553  0.9998882090480077  1.0000
  Pt  Pt9       1.0  0.008414925977636909  0.005312500002443454  0.9998409595330964  1.0000
  Pt  Pt10      1.0  0.00341492593740719  0.006562500012500885  0.999935458562919  1.0000
  Pt  Pt11      1.0  0.00341492593740719  0.009062499717852267  0.9997464608611976  1.0000
  Pt  Pt12      1.0  0.008414925977636909  0.007812499707794839  0.999651961831375  1.0000
  Co  Co13      1.0  0.00591492595752205  0.005937500007472169  0.9993212150518351  1.0000
  Co  Co14      1.0  0.0009149259801512676  0.0071875000018148645  0.9994157140804698  1.0000
  Co  Co15      1.0  0.0009149259801512676  0.00968749970716625  0.9992267160817456  1.0000
  Co  Co16      1.0  0.00591492595752205  0.008437499712823553  0.9995102130505593  1.0000
  Pt  Pt13      1.0  0.008414925977636909  0.005312500002443454  0.999462963535648  1.0000
  Pt  Pt14      1.0  0.00341492593740719  0.006562500012500885  0.9995574625654707  1.0000
  Pt  Pt15      1.0  0.00341492593740719  0.009062499717852267  0.9993684645667466  1.0000
  Pt  Pt16      1.0  0.008414925977636909  0.007812499707794839  0.9992739655369238  1.0000
