data_image0
_chemical_formula_structural       COAu8Ca4Na4
_chemical_formula_sum              "C1 O1 Au8 Ca4 Na4"
_cell_length_a       5.156439304351807
_cell_length_b       7.292306423187256
_cell_length_c       100.93863677978516
_cell_angle_alpha    90.0
_cell_angle_beta     90.0
_cell_angle_gamma    90.0

_space_group_name_H-M_alt    "P 1"
_space_group_IT_number       1

loop_
  _space_group_symop_operation_xyz
  'x, y, z'

loop_
  _atom_site_type_symbol
  _atom_site_label
  _atom_site_symmetry_multiplicity
  _atom_site_fract_x
  _atom_site_fract_y
  _atom_site_fract_z
  _atom_site_occupancy
  C   C1        1.0  0.009999999017462534  0.0076254443391862  0.00015040189875020304  1.0000
  O   O1        1.0  0.009999999017462534  0.0076254443391862  0.00026928624969378836  1.0000
  Au  Au1       1.0  0.005000000953639305  0.007500000510852134  0.9992175571233499  1.0000
  Au  Au2       1.0  0.00500000384345538  0.007425049307447979  0.9997237700165659  1.0000
  Au  Au3       1.0  8.50000025398095e-10  0.007500000510852134  0.9994729815924766  1.0000
  Au  Au4       1.0  0.009999999017462534  0.0076254443391862  0.9999788074104764  1.0000
  Au  Au5       1.0  8.50000025398095e-10  0.002500000255426067  0.9994729815924766  1.0000
  Au  Au6       1.0  0.009999999017462534  0.0023744775004372895  0.9999788026864463  1.0000
  Au  Au7       1.0  0.005000000953639305  0.002500000255426067  0.9992175571233499  1.0000
  Au  Au8       1.0  0.005000002398547343  0.0025749483937174177  0.9997237824171449  1.0000
  Ca  Ca1       1.0  9.049999910723872e-09  0.005000204851705756  0.9997331171006186  1.0000
  Ca  Ca2       1.0  8.50000025398095e-10  0.005000000510852134  0.9992175571233499  1.0000
  Ca  Ca3       1.0  0.005000002398547343  0.01  0.9999612924783842  1.0000
  Ca  Ca4       1.0  0.005000000953639305  3.000000137922125e-10  0.9994729815924766  1.0000
  Na  Na1       1.0  2.8500001003565354e-09  1.510000054196223e-07  0.9997216170398486  1.0000
  Na  Na2       1.0  8.50000025398095e-10  3.000000137922125e-10  0.9992175571233499  1.0000
  Na  Na3       1.0  0.0050000005924122955  0.005000012260451217  0.0  1.0000
  Na  Na4       1.0  0.005000000953639305  0.005000000510852134  0.9994729815924766  1.0000
