data_image0
_chemical_formula_structural       HFe16W8Fe16W8
_chemical_formula_sum              "H1 Fe32 W16"
_cell_length_a       16.219488397784474
_cell_length_b       4.663096678756534
_cell_length_c       107.30477142333984
_cell_angle_alpha    59.99999839678272
_cell_angle_beta     73.29167844923452
_cell_angle_gamma    81.73510916441015

_space_group_name_H-M_alt    "P 1"
_space_group_IT_number       1

loop_
  _space_group_symop_operation_xyz
  'x, y, z'

loop_
  _atom_site_type_symbol
  _atom_site_label
  _atom_site_symmetry_multiplicity
  _atom_site_fract_x
  _atom_site_fract_y
  _atom_site_fract_z
  _atom_site_occupancy
  H   H1        1.0  0.008110104741582955  0.0009483829336995095  0.9996432245860548  1.0000
  Fe  Fe1       1.0  0.00017186659318258862  0.0008523281020395723  0.9993221635706137  1.0000
  Fe  Fe2       1.0  0.005171866301820431  0.0008523281020395723  0.9995394465032353  1.0000
  Fe  Fe3       1.0  0.0026718665224403364  0.0008523281020395723  0.9992135221581454  1.0000
  Fe  Fe4       1.0  0.00767186632100477  0.0008523281020395723  0.9994308050868592  1.0000
  Fe  Fe5       1.0  0.001421866632750289  0.009147672393791278  0.9996283298950467  1.0000
  Fe  Fe6       1.0  0.006421866551216846  0.009147672393791278  0.9994110470675049  1.0000
  Fe  Fe7       1.0  0.003921866532032506  0.0025569844790829673  0.9994456099412491  1.0000
  Fe  Fe8       1.0  0.008921866090792695  0.0025569844790829673  0.999228327129339  1.0000
  Fe  Fe9       1.0  0.003921866532032506  0.007443016074402634  0.9992332799913367  1.0000
  Fe  Fe10      1.0  0.008921866090792695  0.007443016074402634  0.999450562375001  1.0000
  Fe  Fe11      1.0  0.001421866632750289  0.004261640798471612  0.9996283295452238  1.0000
  Fe  Fe12      1.0  0.006421866551216846  0.004261640798471612  0.9994110467176822  1.0000
  Fe  Fe13      1.0  0.001421866632750289  0.009147672393791278  0.9994159995953115  1.0000
  Fe  Fe14      1.0  0.006421866551216846  0.009147672393791278  0.9991987167677698  1.0000
  Fe  Fe15      1.0  0.003921866532032506  0.0025569844790829673  0.9992332796415139  1.0000
  Fe  Fe16      1.0  0.008921866090792695  0.0025569844790829673  0.9994505625806488  1.0000
  W   W1        1.0  0.0048281332953084375  0.007518994887859389  0.999409528180611  1.0000
  W   W2        1.0  0.009828133333677117  0.007518994887859389  0.9996268110989037  1.0000
  W   W3        1.0  0.002328133276124098  0.0041856615237768555  0.999373314887965  1.0000
  W   W4        1.0  0.007328133314492777  0.0041856615237768555  0.9995905972507871  1.0000
  W   W5        1.0  0.000515599689621174  0.0041856615237768555  0.9994520813737873  1.0000
  W   W6        1.0  0.005515599787940914  0.0041856615237768555  0.9992347985384298  1.0000
  W   W7        1.0  0.0030155997687565748  0.007518994887859389  0.9994882952192986  1.0000
  W   W8        1.0  0.008015599807125254  0.007518994887859389  0.9992710123865465  1.0000
  Fe  Fe17      1.0  0.00017186659318258862  0.0008523281020395723  0.9988875978195687  1.0000
  Fe  Fe18      1.0  0.005171866301820431  0.0008523281020395723  0.9991048807521904  1.0000
  Fe  Fe19      1.0  0.0026718665224403364  0.0008523281020395723  0.9987789564071005  1.0000
  Fe  Fe20      1.0  0.00767186632100477  0.0008523281020395723  0.9989962393358143  1.0000
  Fe  Fe21      1.0  0.001421866632750289  0.009147672393791278  0.9991937641440017  1.0000
  Fe  Fe22      1.0  0.006421866551216846  0.009147672393791278  0.99897648131646  1.0000
  Fe  Fe23      1.0  0.003921866532032506  0.0025569844790829673  0.9990110441902041  1.0000
  Fe  Fe24      1.0  0.008921866090792695  0.0025569844790829673  0.998793761378294  1.0000
  Fe  Fe25      1.0  0.003921866532032506  0.007443016074402634  0.9987987142402918  1.0000
  Fe  Fe26      1.0  0.008921866090792695  0.007443016074402634  0.9990159971794266  1.0000
  Fe  Fe27      1.0  0.001421866632750289  0.004261640798471612  0.9991937643496496  1.0000
  Fe  Fe28      1.0  0.006421866551216846  0.004261640798471612  0.9989764815221078  1.0000
  Fe  Fe29      1.0  0.001421866632750289  0.009147672393791278  0.9989814338442665  1.0000
  Fe  Fe30      1.0  0.006421866551216846  0.009147672393791278  0.9987641510167249  1.0000
  Fe  Fe31      1.0  0.003921866532032506  0.0025569844790829673  0.9987987138904689  1.0000
  Fe  Fe32      1.0  0.008921866090792695  0.0025569844790829673  0.9990159968296038  1.0000
  W   W9        1.0  0.0048281332953084375  0.007518994887859389  0.9989749629850366  1.0000
  W   W10       1.0  0.009828133333677117  0.007518994887859389  0.9991922453478588  1.0000
  W   W11       1.0  0.002328133276124098  0.0041856615237768555  0.99893874913692  1.0000
  W   W12       1.0  0.007328133314492777  0.0041856615237768555  0.9991560320552128  1.0000
  W   W13       1.0  0.000515599689621174  0.0041856615237768555  0.9990175156227423  1.0000
  W   W14       1.0  0.005515599787940914  0.0041856615237768555  0.9988002327873848  1.0000
  W   W15       1.0  0.0030155997687565748  0.007518994887859389  0.9990537294682537  1.0000
  W   W16       1.0  0.008015599807125254  0.007518994887859389  0.9988364466355015  1.0000
