data_image0
_chemical_formula_structural       Rh4Sn2V2Rh4Sn2V2H
_chemical_formula_sum              "Rh8 Sn4 V4 H1"
_cell_length_a       8.205523490905762
_cell_length_b       4.698842199780943
_cell_length_c       41.28449630737305
_cell_angle_alpha    91.7638707936055
_cell_angle_beta     90.0
_cell_angle_gamma    115.88533695828828

_space_group_name_H-M_alt    "P 1"
_space_group_IT_number       1

loop_
  _space_group_symop_operation_xyz
  'x, y, z'

loop_
  _atom_site_type_symbol
  _atom_site_label
  _atom_site_symmetry_multiplicity
  _atom_site_fract_x
  _atom_site_fract_y
  _atom_site_fract_z
  _atom_site_occupancy
  Rh  Rh1       1.0  0.0017068271747615064  0.006816463499177964  0.9996605476982389  1.0000
  Rh  Rh2       1.0  0.004818914961602356  0.009265730186299118  3.337360101855793e-05  1.0000
  Rh  Rh3       1.0  0.0004880400126407116  0.0019520155505652673  0.99877964715203  1.0000
  Rh  Rh4       1.0  0.0036130398865775685  0.004452015356582453  0.999214367289843  1.0000
  Sn  Sn1       1.0  0.00018108484722874956  0.0007342695888571644  0.9994206223281827  1.0000
  Sn  Sn2       1.0  0.003925539917438471  0.005702015480026062  0.9985622875048346  1.0000
  V   V1        1.0  0.0034761835431169805  0.003896072074448544  0.9998482747665888  1.0000
  V   V2        1.0  0.0020505400567277145  0.00820201572691328  0.9989970072832537  1.0000
  Rh  Rh5       1.0  0.006706827059355599  0.006816463499177964  0.9996605476982389  1.0000
  Rh  Rh6       1.0  0.00981891509780172  0.009265730186299118  3.337360101855793e-05  1.0000
  Rh  Rh7       1.0  0.005488040116672426  0.0019520155505652673  0.99877964715203  1.0000
  Rh  Rh8       1.0  0.008613039795777992  0.004452015356582453  0.999214367289843  1.0000
  Sn  Sn3       1.0  0.005181084845987349  0.0007342695888571644  0.9994206223281827  1.0000
  Sn  Sn4       1.0  0.008925539826638894  0.005702015480026062  0.9985622875048346  1.0000
  V   V3        1.0  0.008476183679316344  0.003896072074448544  0.9998482747665888  1.0000
  V   V4        1.0  0.0070505401607594284  0.00820201572691328  0.9989970072832537  1.0000
  H   H1        1.0  0.0017068271747615064  0.006816463499177964  2.3880230731655097e-05  1.0000
