data_image0
_chemical_formula_structural       Fe6Si3V3Fe6Si3V3Fe6Si3V3Fe6Si3V3H
_chemical_formula_sum              "Fe24 Si12 V12 H1"
_cell_length_a       7.973956108093262
_cell_length_b       7.973956238059988
_cell_length_c       109.06424713134766
_cell_angle_alpha    90.0
_cell_angle_beta     90.0
_cell_angle_gamma    119.99999946083669

_space_group_name_H-M_alt    "P 1"
_space_group_IT_number       1

loop_
  _space_group_symop_operation_xyz
  'x, y, z'

loop_
  _atom_site_type_symbol
  _atom_site_label
  _atom_site_symmetry_multiplicity
  _atom_site_fract_x
  _atom_site_fract_y
  _atom_site_fract_z
  _atom_site_occupancy
  Fe  Fe1       1.0  0.003333337373381378  0.0024999987053067577  0.9998618391248881  1.0000
  Fe  Fe2       1.0  0.001666669242421141  0.004166666486848161  0.9995636438793142  1.0000
  Fe  Fe3       1.0  2.5825409088162725e-09  0.0008333332838832443  0.9992651633557927  1.0000
  Fe  Fe4       1.0  0.0016666870372722639  0.004166658395015396  0.0  1.0000
  Fe  Fe5       1.0  2.5825409088162725e-09  0.0008333332838832443  0.999712884141075  1.0000
  Fe  Fe6       1.0  0.0033333359453809083  0.002500000053945552  0.9994144036175535  1.0000
  Si  Si1       1.0  2.5825409088162725e-09  0.0008333332838832443  0.9994890234751791  1.0000
  Si  Si2       1.0  0.0033333359453809083  0.002500000053945552  0.9991905432249124  1.0000
  Si  Si3       1.0  0.0016666687057106191  0.00416666675657592  0.9997900163027712  1.0000
  V   V1        1.0  0.0033333359453809083  0.002500000053945552  0.9996382637369399  1.0000
  V   V2        1.0  0.001666669242421141  0.004166666486848161  0.9993397832134183  1.0000
  V   V3        1.0  0.009999997764529499  0.0008333359137288926  0.9999370033059539  1.0000
  Fe  Fe7       1.0  0.0033333373035236485  0.007499998813197861  0.9998618391248881  1.0000
  Fe  Fe8       1.0  0.0016666693185578478  0.009166666594739265  0.9995636438793142  1.0000
  Fe  Fe9       1.0  2.3823363830271583e-09  0.005833333189478529  0.9992651633557927  1.0000
  Fe  Fe10      1.0  0.0016666872663411803  0.009166659042362017  0.0  1.0000
  Fe  Fe11      1.0  2.3823363830271583e-09  0.005833333189478529  0.999712884141075  1.0000
  Fe  Fe12      1.0  0.003333335828255961  0.0074999998921088966  0.9994144036175535  1.0000
  Si  Si4       1.0  2.3823363830271583e-09  0.005833333189478529  0.9994890234751791  1.0000
  Si  Si5       1.0  0.003333335828255961  0.0074999998921088966  0.9991905432249124  1.0000
  Si  Si6       1.0  0.0016666686177845588  0.009166666594739265  0.9997900163027712  1.0000
  V   V4        1.0  0.003333335828255961  0.0074999998921088966  0.9996382637369399  1.0000
  V   V5        1.0  0.0016666693185578478  0.009166666594739265  0.9993397832134183  1.0000
  V   V6        1.0  0.009999997452046508  0.005833335886756117  0.9999370033059539  1.0000
  Fe  Fe13      1.0  0.008333337270601296  0.0024999987053067577  0.9998618391248881  1.0000
  Fe  Fe14      1.0  0.006666669460828816  0.004166666486848161  0.9995636438793142  1.0000
  Fe  Fe15      1.0  0.005000002859346358  0.0008333332838832443  0.9992651633557927  1.0000
  Fe  Fe16      1.0  0.006666687372475487  0.004166658395015396  0.0  1.0000
  Fe  Fe17      1.0  0.005000002859346358  0.0008333332838832443  0.999712884141075  1.0000
  Fe  Fe18      1.0  0.008333336076191921  0.002500000053945552  0.9994144036175535  1.0000
  Si  Si7       1.0  0.005000002859346358  0.0008333332838832443  0.9994890234751791  1.0000
  Si  Si8       1.0  0.008333336076191921  0.002500000053945552  0.9991905432249124  1.0000
  Si  Si9       1.0  0.00666666866132831  0.00416666675657592  0.9997900163027712  1.0000
  V   V7        1.0  0.008333336076191921  0.002500000053945552  0.9996382637369399  1.0000
  V   V8        1.0  0.006666669460828816  0.004166666486848161  0.9993397832134183  1.0000
  V   V9        1.0  0.004999997633718485  0.0008333359137288926  0.9999370033059539  1.0000
  Fe  Fe19      1.0  0.008333337492732438  0.007499998813197861  0.9998618391248881  1.0000
  Fe  Fe20      1.0  0.006666669449368862  0.009166666594739265  0.9995636438793142  1.0000
  Fe  Fe21      1.0  0.005000002513147397  0.005833333189478529  0.9992651633557927  1.0000
  Fe  Fe22      1.0  0.006666687397152194  0.009166659042362017  0.0  1.0000
  Fe  Fe23      1.0  0.005000002513147397  0.005833333189478529  0.999712884141075  1.0000
  Fe  Fe24      1.0  0.008333336163459182  0.0074999998921088966  0.9994144036175535  1.0000
  Si  Si10      1.0  0.005000002513147397  0.005833333189478529  0.9994890234751791  1.0000
  Si  Si11      1.0  0.008333336163459182  0.0074999998921088966  0.9991905432249124  1.0000
  Si  Si12      1.0  0.006666668748595572  0.009166666594739265  0.9997900163027712  1.0000
  V   V10       1.0  0.008333336163459182  0.0074999998921088966  0.9996382637369399  1.0000
  V   V11       1.0  0.006666669449368862  0.009166666594739265  0.9993397832134183  1.0000
  V   V12       1.0  0.004999997554826591  0.005833335886756117  0.9999370033059539  1.0000
  H   H1        1.0  0.004166667353038413  0.0016666672420858856  3.69549709068084e-05  1.0000
