data_image0
_chemical_formula_structural       COCu40
_chemical_formula_sum              "C1 O1 Cu40"
_cell_length_a       5.200186252593994
_cell_length_b       7.800279236599548
_cell_length_c       106.86267852783203
_cell_angle_alpha    94.04469109155319
_cell_angle_beta     90.0
_cell_angle_gamma    90.0

_space_group_name_H-M_alt    "P 1"
_space_group_IT_number       1

loop_
  _space_group_symop_operation_xyz
  'x, y, z'

loop_
  _atom_site_type_symbol
  _atom_site_label
  _atom_site_symmetry_multiplicity
  _atom_site_fract_x
  _atom_site_fract_y
  _atom_site_fract_z
  _atom_site_occupancy
  C   C1        1.0  0.003749999727776998  0.0006813030069957166  0.00014729322130549875  1.0000
  O   O1        1.0  0.003749999727776998  0.0006813030069957166  0.0002595870968101231  1.0000
  Cu  Cu1       1.0  0.0012499999391080128  0.002333333303329994  0.9989823008365996  1.0000
  Cu  Cu2       1.0  0.0012499999391080128  0.007999999965528078  0.9990972853780574  1.0000
  Cu  Cu3       1.0  0.0012499999391080128  0.005000000038302136  0.9994422393486914  1.0000
  Cu  Cu4       1.0  0.0012499999391080128  0.0036666665511218915  0.999212269952587  1.0000
  Cu  Cu5       1.0  0.0012499999391080128  0.009333333213319975  0.9993272544940449  1.0000
  Cu  Cu6       1.0  0.003749999727776998  0.0008333333995641096  0.9991547776827825  1.0000
  Cu  Cu7       1.0  0.003749999727776998  0.00649999976252676  0.9992697625015841  1.0000
  Cu  Cu8       1.0  0.003749999727776998  0.005166666514734863  0.9990397931067122  1.0000
  Cu  Cu9       1.0  0.003749999727776998  0.00216666658750892  0.9993847470773461  1.0000
  Cu  Cu10      1.0  0.003749999727776998  0.009500000168529397  0.9989248085334151  1.0000
  Cu  Cu11      1.0  0.0012499999391080128  0.0006666666837430355  0.9995572236446448  1.0000
  Cu  Cu12      1.0  0.0012499999391080128  0.006333333286094033  0.9996722081857946  1.0000
  Cu  Cu13      1.0  0.0012499999391080128  0.0033333333588680906  1.7161877544225465e-05  1.0000
  Cu  Cu14      1.0  0.0012499999391080128  0.0019999999913820196  0.9997871930398248  1.0000
  Cu  Cu15      1.0  0.0012499999391080128  0.007666666533885931  0.9999021775806664  1.0000
  Cu  Cu16      1.0  0.003749999727776998  0.009166666258110554  0.9997297004546748  1.0000
  Cu  Cu17      1.0  0.003749999727776998  0.004833333561869409  0.9998446853117862  1.0000
  Cu  Cu18      1.0  0.003749999727776998  0.0034999998353008174  0.9996147159144494  1.0000
  Cu  Cu19      1.0  0.003749999727776998  0.0004999999978455049  0.9999596696066612  1.0000
  Cu  Cu20      1.0  0.003749999727776998  0.007833333489095352  0.9994997316200366  1.0000
  Cu  Cu21      1.0  0.006250000143275264  0.002333333303329994  0.9989823008365996  1.0000
  Cu  Cu22      1.0  0.006250000143275264  0.007999999965528078  0.9990972853780574  1.0000
  Cu  Cu23      1.0  0.006250000143275264  0.005000000038302136  0.9994422393486914  1.0000
  Cu  Cu24      1.0  0.006250000143275264  0.0036666665511218915  0.999212269952587  1.0000
  Cu  Cu25      1.0  0.006250000143275264  0.009333333213319975  0.9993272544940449  1.0000
  Cu  Cu26      1.0  0.00874999948420905  0.0008333333995641096  0.9991547776827825  1.0000
  Cu  Cu27      1.0  0.00874999948420905  0.00649999976252676  0.9992697625015841  1.0000
  Cu  Cu28      1.0  0.00874999948420905  0.005166666514734863  0.9990397931067122  1.0000
  Cu  Cu29      1.0  0.00874999948420905  0.00216666658750892  0.9993847470773461  1.0000
  Cu  Cu30      1.0  0.00874999948420905  0.009500000168529397  0.9989248085334151  1.0000
  Cu  Cu31      1.0  0.006250000143275264  0.0006666666837430355  0.9995572236446448  1.0000
  Cu  Cu32      1.0  0.006250000143275264  0.006333333286094033  0.9996722081857946  1.0000
  Cu  Cu33      1.0  0.006250000143275264  0.0033333333588680906  1.7161877544225465e-05  1.0000
  Cu  Cu34      1.0  0.006250000143275264  0.0019999999913820196  0.9997871930398248  1.0000
  Cu  Cu35      1.0  0.006250000143275264  0.007666666533885931  0.9999021775806664  1.0000
  Cu  Cu36      1.0  0.00874999948420905  0.009166666258110554  0.9997297004546748  1.0000
  Cu  Cu37      1.0  0.00874999948420905  0.004833333561869409  0.9998446853117862  1.0000
  Cu  Cu38      1.0  0.00874999948420905  0.0034999998353008174  0.9996147159144494  1.0000
  Cu  Cu39      1.0  0.00874999948420905  0.0004999999978455049  0.9999596696066612  1.0000
  Cu  Cu40      1.0  0.00874999948420905  0.007833333489095352  0.9994997316200366  1.0000
