data_image0
_chemical_formula_structural       HPd16Sn32
_chemical_formula_sum              "H1 Pd16 Sn32"
_cell_length_a       6.649832431148655
_cell_length_b       13.349272408687641
_cell_length_c       31.20810317993164
_cell_angle_alpha    95.04545060421137
_cell_angle_beta     94.91694716817766
_cell_angle_gamma    75.57745569022478

_space_group_name_H-M_alt    "P 1"
_space_group_IT_number       1

loop_
  _space_group_symop_operation_xyz
  'x, y, z'

loop_
  _atom_site_type_symbol
  _atom_site_label
  _atom_site_symmetry_multiplicity
  _atom_site_fract_x
  _atom_site_fract_y
  _atom_site_fract_z
  _atom_site_occupancy
  H   H1        1.0  0.007345755832607444  0.0044325156414241835  0.0002669552147554477  1.0000
  Pd  Pd1       1.0  0.008175735212330367  0.00973634313852495  0.9995604392662263  1.0000
  Pd  Pd2       1.0  0.005649557363742402  0.005145500085069324  2.3829654971833817e-05  1.0000
  Pd  Pd3       1.0  0.009416039269873378  0.006500791027334278  0.9988472599409518  1.0000
  Pd  Pd4       1.0  0.0016769479894738048  0.002508853023351215  0.0002475698630578137  1.0000
  Pd  Pd5       1.0  0.004485274976150772  0.00732277314222053  0.999838553492736  1.0000
  Pd  Pd6       1.0  0.006916038825284547  0.0019174579135138147  0.9993651796553478  1.0000
  Pd  Pd7       1.0  0.003083961011937539  0.00894293351194564  0.9985712962910255  1.0000
  Pd  Pd8       1.0  0.0005839612707081879  0.0043596001092924535  0.9990892160074016  1.0000
  Pd  Pd9       1.0  0.008083961798961706  0.008109600271038778  0.9975354567180181  1.0000
  Pd  Pd10      1.0  0.005583961495455021  0.003526266868385592  0.9980533766628639  1.0000
  Pd  Pd11      1.0  0.00941603854983019  0.0048341245455205545  0.9967755809917777  1.0000
  Pd  Pd12      1.0  0.001916038829722136  0.0010841244559824106  0.9983293402986372  1.0000
  Pd  Pd13      1.0  0.004416038887360691  0.005667457786427416  0.9978114205853232  1.0000
  Pd  Pd14      1.0  0.006916038808600838  0.00025079114286736783  0.9972935007081539  1.0000
  Pd  Pd15      1.0  0.0030839614164490194  0.007276267030131916  0.9964996173623896  1.0000
  Pd  Pd16      1.0  0.00058396125402448  0.002692933338646007  0.9970175370602078  1.0000
  Sn  Sn1       1.0  0.0021164450390150852  0.006477491469221541  0.0003467953676448208  1.0000
  Sn  Sn2       1.0  0.005914079444274967  0.00027784904653013835  0.998778869815783  1.0000
  Sn  Sn3       1.0  0.00880126147435566  0.001345302817864987  0.00021135029622619653  1.0000
  Sn  Sn4       1.0  0.008586000128542905  0.006058845766948944  0.9997335154334297  1.0000
  Sn  Sn5       1.0  0.0009140793694816078  0.0005825421341435844  0.9991576054328768  1.0000
  Sn  Sn6       1.0  0.006585920991093844  0.00516587550069268  0.9986396860182166  1.0000
  Sn  Sn7       1.0  0.003414079549487721  0.005694515635934051  0.9992967894526595  1.0000
  Sn  Sn8       1.0  0.004328219858887997  0.0009503289790852944  0.999843473550561  1.0000
  Sn  Sn9       1.0  0.0012250336380343944  0.008138529178926114  0.9992271976979266  1.0000
  Sn  Sn10      1.0  0.008750000320125958  0.002717701322323344  0.9987041058474068  1.0000
  Sn  Sn11      1.0  0.003773148048210961  0.003526185995223104  0.9997897869800861  1.0000
  Sn  Sn12      1.0  0.006497947193815752  0.008808730853117034  0.00024580121608018405  1.0000
  Sn  Sn13      1.0  0.001257760362834166  0.008896728941220016  0.00024304591611135645  1.0000
  Sn  Sn14      1.0  0.003750000000613609  0.0027260234595760623  0.9987144499933276  1.0000
  Sn  Sn15      1.0  0.008685420900085223  0.0035341589337135088  0.9997137468597169  1.0000
  Sn  Sn16      1.0  0.006225033098248154  0.008138529178926114  0.9992271974493296  1.0000
  Sn  Sn17      1.0  0.001585920748583984  0.004861182395027189  0.9982609503946486  1.0000
  Sn  Sn18      1.0  0.005914079695228553  0.008611182556773515  0.9967071912851247  1.0000
  Sn  Sn19      1.0  0.00908592129460053  0.009749208903345867  0.9981217663121095  1.0000
  Sn  Sn20      1.0  0.008414079353093061  0.004332542259785819  0.9976038466096653  1.0000
  Sn  Sn21      1.0  0.0009140796116175602  0.008915875662439005  0.9970859271414754  1.0000
  Sn  Sn22      1.0  0.006585920974410137  0.0034992087300462337  0.9965680073097614  1.0000
  Sn  Sn23      1.0  0.003414079391721867  0.004027849154120328  0.9972251109912319  1.0000
  Sn  Sn24      1.0  0.004085920770952003  0.009444515797680375  0.997743030683407  1.0000
  Sn  Sn25      1.0  0.0012250334812941664  0.006471862119446943  0.9971555189760479  1.0000
  Sn  Sn26      1.0  0.008750000303442251  0.001051034551676897  0.9966324271389515  1.0000
  Sn  Sn27      1.0  0.003749999992271755  0.001892690074252839  0.9976786108778386  1.0000
  Sn  Sn28      1.0  0.006274966339121136  0.007305195938019251  0.9981913583114791  1.0000
  Sn  Sn29      1.0  0.0012749663166300444  0.007305195938019251  0.9981913585498069  1.0000
  Sn  Sn30      1.0  0.003749999983929901  0.0010593566889296156  0.9966427715236109  1.0000
  Sn  Sn31      1.0  0.008750000101186511  0.001884367792583759  0.9976682662451615  1.0000
  Sn  Sn32      1.0  0.006225033784923926  0.006471862119446943  0.9971555189815932  1.0000
