data_image0
_chemical_formula_structural       COCu16
_chemical_formula_sum              "C1 O1 Cu16"
_cell_length_a       5.200186252593994
_cell_length_b       5.200186252593994
_cell_length_c       99.41669464111328
_cell_angle_alpha    90.0
_cell_angle_beta     90.0
_cell_angle_gamma    90.0

_space_group_name_H-M_alt    "P 1"
_space_group_IT_number       1

loop_
  _space_group_symop_operation_xyz
  'x, y, z'

loop_
  _atom_site_type_symbol
  _atom_site_label
  _atom_site_symmetry_multiplicity
  _atom_site_fract_x
  _atom_site_fract_y
  _atom_site_fract_z
  _atom_site_occupancy
  C   C1        1.0  0.004999992950856997  0.006249999426898943  0.0001742213798980795  1.0000
  O   O1        1.0  0.004999992950856997  0.006249999426898943  0.0002949250982963752  1.0000
  Cu  Cu1       1.0  0.009999998080111459  0.001250009520641312  0.9998278995056499  1.0000
  Cu  Cu2       1.0  0.0024999930726409716  0.003749999727776998  0.0  1.0000
  Cu  Cu3       1.0  1.2999999175786568e-09  0.0012499999391080128  0.9994619176968584  1.0000
  Cu  Cu4       1.0  0.002500001131874588  0.003749999727776998  0.999646850822804  1.0000
  Cu  Cu5       1.0  0.009999998080111459  0.006250009456167443  0.9998278995056499  1.0000
  Cu  Cu6       1.0  0.0024999930726409716  0.00874999948420905  0.0  1.0000
  Cu  Cu7       1.0  1.2999999175786568e-09  0.006250000143275264  0.9994619176968584  1.0000
  Cu  Cu8       1.0  0.002500001131874588  0.00874999948420905  0.999646850822804  1.0000
  Cu  Cu9       1.0  0.004999998681867569  0.001250009520641312  0.9998278995056499  1.0000
  Cu  Cu10      1.0  0.007499993008167103  0.003749999727776998  0.0  1.0000
  Cu  Cu11      1.0  0.0050000011891846935  0.0012499999391080128  0.9994619176968584  1.0000
  Cu  Cu12      1.0  0.007500000888306639  0.003749999727776998  0.999646850822804  1.0000
  Cu  Cu13      1.0  0.004999998681867569  0.006250009456167443  0.9998278995056499  1.0000
  Cu  Cu14      1.0  0.007499993008167103  0.00874999948420905  0.0  1.0000
  Cu  Cu15      1.0  0.0050000011891846935  0.006250000143275264  0.9994619176968584  1.0000
  Cu  Cu16      1.0  0.007500000888306639  0.00874999948420905  0.999646850822804  1.0000
