data_image0
_chemical_formula_structural       HV5Co15V5Co15
_chemical_formula_sum              "H1 V10 Co30"
_cell_length_a       7.894250016513115
_cell_length_b       4.992762088775635
_cell_length_c       106.68915557861328
_cell_angle_alpha    90.0
_cell_angle_beta     104.96321636556995
_cell_angle_gamma    71.56505119783009

_space_group_name_H-M_alt    "P 1"
_space_group_IT_number       1

loop_
  _space_group_symop_operation_xyz
  'x, y, z'

loop_
  _atom_site_type_symbol
  _atom_site_label
  _atom_site_symmetry_multiplicity
  _atom_site_fract_x
  _atom_site_fract_y
  _atom_site_fract_z
  _atom_site_occupancy
  H   H1        1.0  0.0006541441878206101  0.008172927810584011  0.00012184976352441076  1.0000
  V   V1        1.0  0.0044999996732941255  0.0024999999783106744  8.597207746371099e-05  1.0000
  V   V2        1.0  0.008499999784953095  0.000499999922481189  0.9999713430369029  1.0000
  V   V3        1.0  0.0004999999816486416  0.004499999824133416  0.99962745454941  1.0000
  V   V4        1.0  0.0024999998759344783  0.008499999996372604  0.9998567135937007  1.0000
  V   V5        1.0  0.006499999987593448  0.0064999999405431184  0.9997420839944641  1.0000
  Co  Co1       1.0  0.0024999998759344783  0.003499999876990498  0.9998567135937007  1.0000
  Co  Co2       1.0  0.006499999987593448  0.0014999998211610132  0.9997420839944641  1.0000
  Co  Co3       1.0  0.008499999784953095  0.005500000041863295  0.9999713430369029  1.0000
  Co  Co4       1.0  0.0004999999816486416  0.009499999943515523  0.99962745454941  1.0000
  Co  Co5       1.0  0.0044999996732941255  0.00750000009769278  8.597207746371099e-05  1.0000
  Co  Co6       1.0  0.005499999830443787  0.009500000078809  0.9999140283153017  1.0000
  Co  Co7       1.0  0.009499999942102757  0.0075000000229795164  0.9997993987160653  1.0000
  Co  Co8       1.0  0.0014999999772546543  0.0014999999531738967  2.865736080058444e-05  1.0000
  Co  Co9       1.0  0.003499999774614302  0.005499999987341638  0.9996847692679249  1.0000
  Co  Co10      1.0  0.0074999996278034345  0.0035000000607470724  0.00014328679906487987  1.0000
  Co  Co11      1.0  0.005499999830443787  0.004499999959426896  0.9999140283153017  1.0000
  Co  Co12      1.0  0.009499999942102757  0.0024999999035974114  0.9997993987160653  1.0000
  Co  Co13      1.0  0.0014999999772546543  0.006499999886021463  2.865736080058444e-05  1.0000
  Co  Co14      1.0  0.003499999774614302  0.0005000000544940729  0.9996847692679249  1.0000
  Co  Co15      1.0  0.0074999996278034345  0.008500000180129176  0.00014328679906487987  1.0000
  V   V6        1.0  0.0044999996732941255  0.0024999999783106744  0.9995128249421492  1.0000
  V   V7        1.0  0.008499999784953095  0.000499999922481189  0.9993981956222505  1.0000
  V   V8        1.0  0.0004999999816486416  0.004499999824133416  0.9990543074140955  1.0000
  V   V9        1.0  0.0024999998759344783  0.008499999996372604  0.9992835661790482  1.0000
  V   V10       1.0  0.006499999987593448  0.0064999999405431184  0.9991689368591496  1.0000
  Co  Co16      1.0  0.0024999998759344783  0.003499999876990498  0.9992835661790482  1.0000
  Co  Co17      1.0  0.006499999987593448  0.0014999998211610132  0.9991689368591496  1.0000
  Co  Co18      1.0  0.008499999784953095  0.005500000041863295  0.9993981956222505  1.0000
  Co  Co19      1.0  0.0004999999816486416  0.009499999943515523  0.9990543074140955  1.0000
  Co  Co20      1.0  0.0044999996732941255  0.00750000009769278  0.9995128249421492  1.0000
  Co  Co21      1.0  0.005499999830443787  0.009500000078809  0.9993408809006494  1.0000
  Co  Co22      1.0  0.009499999942102757  0.0075000000229795164  0.9992262515807507  1.0000
  Co  Co23      1.0  0.0014999999772546543  0.0014999999531738967  0.9994555102254861  1.0000
  Co  Co24      1.0  0.003499999774614302  0.005499999987341638  0.9991116221326104  1.0000
  Co  Co25      1.0  0.0074999996278034345  0.0035000000607470724  0.9995701396637504  1.0000
  Co  Co26      1.0  0.005499999830443787  0.004499999959426896  0.9993408809006494  1.0000
  Co  Co27      1.0  0.009499999942102757  0.0024999999035974114  0.9992262515807507  1.0000
  Co  Co28      1.0  0.0014999999772546543  0.006499999886021463  0.9994555102254861  1.0000
  Co  Co29      1.0  0.003499999774614302  0.0005000000544940729  0.9991116221326104  1.0000
  Co  Co30      1.0  0.0074999996278034345  0.008500000180129176  0.9995701396637504  1.0000
