data_image0
_chemical_formula_structural       COSn5Pd15Sn5Pd15
_chemical_formula_sum              "C1 O1 Sn10 Pd30"
_cell_length_a       9.102482912019994
_cell_length_b       5.756916046142578
_cell_length_c       105.25376892089844
_cell_angle_alpha    90.0
_cell_angle_beta     104.96321728716751
_cell_angle_gamma    71.5650499390068

_space_group_name_H-M_alt    "P 1"
_space_group_IT_number       1

loop_
  _space_group_symop_operation_xyz
  'x, y, z'

loop_
  _atom_site_type_symbol
  _atom_site_label
  _atom_site_symmetry_multiplicity
  _atom_site_fract_x
  _atom_site_fract_y
  _atom_site_fract_z
  _atom_site_occupancy
  C   C1        1.0  0.009067315310209573  0.0007163423345416422  0.00036081479711767004  1.0000
  O   O1        1.0  0.009067315310209573  0.0007163423345416422  0.0004748251973315899  1.0000
  Sn  Sn1       1.0  0.005500000075318239  0.0024999996284381836  0.000122811568518856  1.0000
  Sn  Sn2       1.0  0.009500000659931236  0.000499999336131685  0.9999888351456273  1.0000
  Sn  Sn3       1.0  0.001500000051108805  0.004499999640542901  0.9995869067529191  1.0000
  Sn  Sn4       1.0  0.0035000000071731653  0.008499999390729455  0.9998548588763203  1.0000
  Sn  Sn5       1.0  0.007500000143463312  0.006499999322584382  0.9997208830097126  1.0000
  Pd  Pd1       1.0  0.006500000333552201  0.004499999201656007  0.9999218470109738  1.0000
  Pd  Pd2       1.0  0.0005000000170362683  0.002499999955244364  0.9997878707491749  1.0000
  Pd  Pd3       1.0  0.002499999973100629  0.006499999381881793  5.5823438870738725e-05  1.0000
  Pd  Pd4       1.0  0.004500000265407127  0.0004999998310589343  0.9996538948850698  1.0000
  Pd  Pd5       1.0  0.008500000401697275  0.00849999921935133  0.000189799703172358  1.0000
  Pd  Pd6       1.0  0.0035000000071731653  0.00349999966251072  0.9998548588763203  1.0000
  Pd  Pd7       1.0  0.007500000143463312  0.001499999594365647  0.9997208830097126  1.0000
  Pd  Pd8       1.0  0.009500000659931236  0.00549999906435042  0.9999888351456273  1.0000
  Pd  Pd9       1.0  0.001500000051108805  0.009499999368761636  0.9995869067529191  1.0000
  Pd  Pd10      1.0  0.005500000075318239  0.007499999356656919  0.000122811568518856  1.0000
  Pd  Pd11      1.0  0.006500000333552201  0.009499999253423867  0.9999218470109738  1.0000
  Pd  Pd12      1.0  0.0005000000170362683  0.007499999359913974  0.9997878707491749  1.0000
  Pd  Pd13      1.0  0.002499999973100629  0.0014999999772121837  5.5823438870738725e-05  1.0000
  Pd  Pd14      1.0  0.004500000265407127  0.0054999992357285445  0.9996538948850698  1.0000
  Pd  Pd15      1.0  0.008500000401697275  0.003499999167583471  0.000189799703172358  1.0000
  Sn  Sn6       1.0  0.005500000075318239  0.0024999996284381836  0.999452930317514  1.0000
  Sn  Sn7       1.0  0.009500000659931236  0.000499999336131685  0.9993189538946224  1.0000
  Sn  Sn8       1.0  0.001500000051108805  0.004499999640542901  0.9989170252187669  1.0000
  Sn  Sn9       1.0  0.0035000000071731653  0.008499999390729455  0.9991849776253154  1.0000
  Sn  Sn10      1.0  0.007500000143463312  0.006499999322584382  0.9990510014755605  1.0000
  Pd  Pd16      1.0  0.006500000333552201  0.004499999201656007  0.999251965759969  1.0000
  Pd  Pd17      1.0  0.0005000000170362683  0.002499999955244364  0.99911798949817  1.0000
  Pd  Pd18      1.0  0.002499999973100629  0.006499999381881793  0.9993859421878659  1.0000
  Pd  Pd19      1.0  0.004500000265407127  0.0004999998310589343  0.9989840133509177  1.0000
  Pd  Pd20      1.0  0.008500000401697275  0.00849999921935133  0.9995199184521675  1.0000
  Pd  Pd21      1.0  0.0035000000071731653  0.00349999966251072  0.9991849776253154  1.0000
  Pd  Pd22      1.0  0.007500000143463312  0.001499999594365647  0.9990510014755605  1.0000
  Pd  Pd23      1.0  0.009500000659931236  0.00549999906435042  0.9993189538946224  1.0000
  Pd  Pd24      1.0  0.001500000051108805  0.009499999368761636  0.9989170252187669  1.0000
  Pd  Pd25      1.0  0.005500000075318239  0.007499999356656919  0.999452930317514  1.0000
  Pd  Pd26      1.0  0.006500000333552201  0.009499999253423867  0.999251965759969  1.0000
  Pd  Pd27      1.0  0.0005000000170362683  0.007499999359913974  0.99911798949817  1.0000
  Pd  Pd28      1.0  0.002499999973100629  0.0014999999772121837  0.9993859421878659  1.0000
  Pd  Pd29      1.0  0.004500000265407127  0.0054999992357285445  0.9989840133509177  1.0000
  Pd  Pd30      1.0  0.008500000401697275  0.003499999167583471  0.9995199184521675  1.0000
