data_image0
_chemical_formula_structural       HIr24
_chemical_formula_sum              "H1 Ir24"
_cell_length_a       5.4964680671691895
_cell_length_b       5.496467926096338
_cell_length_c       103.65885162353516
_cell_angle_alpha    90.0
_cell_angle_beta     90.0
_cell_angle_gamma    59.99999915097251

_space_group_name_H-M_alt    "P 1"
_space_group_IT_number       1

loop_
  _space_group_symop_operation_xyz
  'x, y, z'

loop_
  _atom_site_type_symbol
  _atom_site_label
  _atom_site_symmetry_multiplicity
  _atom_site_fract_x
  _atom_site_fract_y
  _atom_site_fract_z
  _atom_site_occupancy
  H   H1        1.0  0.0008333332951233712  0.0008333333894204354  0.0001447053045634898  1.0000
  Ir  Ir1       1.0  0.0008333332951233712  0.0008333333894204354  0.0  1.0000
  Ir  Ir2       1.0  0.004166666635462614  0.0041666664579704735  0.9995670559521381  1.0000
  Ir  Ir3       1.0  0.002500000019003377  0.002500000070434965  0.9997835279760691  1.0000
  Ir  Ir4       1.0  0.0008333332951233712  0.0008333333894204354  0.9993505839282072  1.0000
  Ir  Ir5       1.0  0.004166666635462614  0.0041666664579704735  0.9989176398803454  1.0000
  Ir  Ir6       1.0  0.002500000019003377  0.002500000070434965  0.9991341119042764  1.0000
  Ir  Ir7       1.0  0.000833332999108474  0.005833333432464025  0.0  1.0000
  Ir  Ir8       1.0  0.004166666179601959  0.009166666990145766  0.9995670559521381  1.0000
  Ir  Ir9       1.0  0.002500000052274425  0.007499999624346852  0.9997835279760691  1.0000
  Ir  Ir10      1.0  0.000833332999108474  0.005833333432464025  0.9993505839282072  1.0000
  Ir  Ir11      1.0  0.004166666179601959  0.009166666990145766  0.9989176398803454  1.0000
  Ir  Ir12      1.0  0.002500000052274425  0.007499999624346852  0.9991341119042764  1.0000
  Ir  Ir13      1.0  0.005833333169737632  0.0008333333894204354  0.0  1.0000
  Ir  Ir14      1.0  0.009166666255916596  0.0041666664579704735  0.9995670559521381  1.0000
  Ir  Ir15      1.0  0.007499999639457358  0.002500000070434965  0.9997835279760691  1.0000
  Ir  Ir16      1.0  0.005833333169737632  0.0008333333894204354  0.9993505839282072  1.0000
  Ir  Ir17      1.0  0.009166666255916596  0.0041666664579704735  0.9989176398803454  1.0000
  Ir  Ir18      1.0  0.007499999639457358  0.002500000070434965  0.9991341119042764  1.0000
  Ir  Ir19      1.0  0.005833332958442829  0.005833333432464025  0.0  1.0000
  Ir  Ir20      1.0  0.009166665800055939  0.009166666990145766  0.9995670559521381  1.0000
  Ir  Ir21      1.0  0.007499999672728407  0.007499999624346852  0.9997835279760691  1.0000
  Ir  Ir22      1.0  0.005833332958442829  0.005833333432464025  0.9993505839282072  1.0000
  Ir  Ir23      1.0  0.009166665800055939  0.009166666990145766  0.9989176398803454  1.0000
  Ir  Ir24      1.0  0.007499999672728407  0.007499999624346852  0.9991341119042764  1.0000
