data_image0
_chemical_formula_structural       COSb24
_chemical_formula_sum              "C1 O1 Sb24"
_cell_length_a       8.841442108154297
_cell_length_b       8.841442355467905
_cell_length_c       104.62483978271484
_cell_angle_alpha    90.0
_cell_angle_beta     90.0
_cell_angle_gamma    119.99999907469076

_space_group_name_H-M_alt    "P 1"
_space_group_IT_number       1

loop_
  _space_group_symop_operation_xyz
  'x, y, z'

loop_
  _atom_site_type_symbol
  _atom_site_label
  _atom_site_symmetry_multiplicity
  _atom_site_fract_x
  _atom_site_fract_y
  _atom_site_fract_z
  _atom_site_occupancy
  C   C1        1.0  0.004166678002690684  0.0025000015374232643  0.00016554877179503503  1.0000
  O   O1        1.0  0.004166678002690684  0.0025000015374232643  0.00028024452037268404  1.0000
  Sb  Sb1       1.0  0.0008333461474838327  0.0008333327308515373  0.9998465516305345  1.0000
  Sb  Sb2       1.0  0.0025000112218961767  0.004166668093810625  0.0  1.0000
  Sb  Sb3       1.0  0.004166666852195174  0.0024999986182651676  0.999076109500246  1.0000
  Sb  Sb4       1.0  0.0008333333407136947  0.000833331818614632  0.9992971079099568  1.0000
  Sb  Sb5       1.0  0.002500000071400667  0.0041666651746525285  0.999443823863955  1.0000
  Sb  Sb6       1.0  0.004166666852195174  0.0024999986182651676  0.9996648222736658  1.0000
  Sb  Sb7       1.0  0.0008333459961141346  0.005833332704092588  0.9998465516305345  1.0000
  Sb  Sb8       1.0  0.0025000112407522045  0.009166668249499056  0.0  1.0000
  Sb  Sb9       1.0  0.0041666665224519795  0.00749999828742725  0.999076109500246  1.0000
  Sb  Sb10      1.0  0.0008333332906061605  0.005833331731039889  0.9992971079099568  1.0000
  Sb  Sb11      1.0  0.002500000090256696  0.00916666533034096  0.999443823863955  1.0000
  Sb  Sb12      1.0  0.0041666665224519795  0.00749999828742725  0.9996648222736658  1.0000
  Sb  Sb13      1.0  0.005833346397130268  0.0008333327308515373  0.9998465516305345  1.0000
  Sb  Sb14      1.0  0.007500011550544648  0.004166668093810625  0.0  1.0000
  Sb  Sb15      1.0  0.009166666548827354  0.0024999986182651676  0.999076109500246  1.0000
  Sb  Sb16      1.0  0.0058333333006859965  0.000833331818614632  0.9992971079099568  1.0000
  Sb  Sb17      1.0  0.007500000400049139  0.0041666651746525285  0.999443823863955  1.0000
  Sb  Sb18      1.0  0.009166666548827354  0.0024999986182651676  0.9996648222736658  1.0000
  Sb  Sb19      1.0  0.005833346114090509  0.005833332704092588  0.9998465516305345  1.0000
  Sb  Sb20      1.0  0.007500011358728579  0.009166668249499056  0.0  1.0000
  Sb  Sb21      1.0  0.009166666535092306  0.00749999828742725  0.999076109500246  1.0000
  Sb  Sb22      1.0  0.005833333408582535  0.005833331731039889  0.9992971079099568  1.0000
  Sb  Sb23      1.0  0.007500000208233071  0.00916666533034096  0.999443823863955  1.0000
  Sb  Sb24      1.0  0.009166666535092306  0.00749999828742725  0.9996648222736658  1.0000
