data_image0
_chemical_formula_structural       HAl32Mo12
_chemical_formula_sum              "H1 Al32 Mo12"
_cell_length_a       4.985341497259066
_cell_length_b       12.50712818451006
_cell_length_c       102.67304229736328
_cell_angle_alpha    89.46203778381111
_cell_angle_beta     88.87539439801338
_cell_angle_gamma    85.66528309253036

_space_group_name_H-M_alt    "P 1"
_space_group_IT_number       1

loop_
  _space_group_symop_operation_xyz
  'x, y, z'

loop_
  _atom_site_type_symbol
  _atom_site_label
  _atom_site_symmetry_multiplicity
  _atom_site_fract_x
  _atom_site_fract_y
  _atom_site_fract_z
  _atom_site_occupancy
  H   H1        1.0  0.003677754744961296  0.009129208428448079  4.851401876495642e-05  1.0000
  Al  Al1       1.0  0.0007003791480282167  0.009109928622167482  0.9995981814489483  1.0000
  Al  Al2       1.0  0.0032003791020738088  0.0007765955975086009  0.9993329944886884  1.0000
  Al  Al3       1.0  0.008119983107720927  0.00744019977748292  0.999866455172871  1.0000
  Al  Al4       1.0  0.005700379340946274  0.0024432622920555406  0.9990678077933444  1.0000
  Al  Al5       1.0  0.0052674608580624725  0.00455339305854995  0.9990190363553844  1.0000
  Al  Al6       1.0  0.007802449667597373  0.009490186073771088  0.9998233523529971  1.0000
  Al  Al7       1.0  0.0027674605626632773  0.002886726662720222  0.9992842230504406  1.0000
  Al  Al8       1.0  0.0002674604497952676  0.001220060042852585  0.9995494100358435  1.0000
  Al  Al9       1.0  0.007641039370658294  0.003925703360980623  0.9992604661571056  1.0000
  Al  Al10      1.0  0.0001410390307736644  0.005592369756810351  0.9989952791107093  1.0000
  Al  Al11      1.0  0.0051410391600491935  0.002259036517075077  0.9995256528525935  1.0000
  Al  Al12      1.0  0.002513060253608801  0.0005312415271850059  0.9997910386812302  1.0000
  Al  Al13      1.0  0.008326800897019851  0.009737618319736808  0.9993567514183946  1.0000
  Al  Al14      1.0  0.0008268007197994407  0.0014042855937951397  0.9990915646865013  1.0000
  Al  Al15      1.0  0.005826800975317024  0.008070951923907081  0.9996219381130949  1.0000
  Al  Al16      1.0  0.0031400756971904633  0.006345316360740732  0.9999048467253777  1.0000
  Al  Al17      1.0  0.002358961072823445  0.005039970537593097  0.9992402708564738  1.0000
  Al  Al18      1.0  0.00445775557822626  0.009835004910241835  2.4232263984337368e-05  1.0000
  Al  Al19      1.0  0.00985896133891335  0.003373303544328946  0.9995054579036238  1.0000
  Al  Al20      1.0  0.0073474430237783234  0.0016273344499175598  0.9997683170539738  1.0000
  Al  Al21      1.0  0.003608878633365601  0.008623351740558758  0.9993769466571971  1.0000
  Al  Al22      1.0  0.006108878806055662  0.00029001854787144533  0.9991117599871853  1.0000
  Al  Al23      1.0  0.0011088786378680487  0.006956684747294607  0.9996421336429152  1.0000
  Al  Al24      1.0  0.008415646358537612  0.005158493163132519  0.9999108969395534  1.0000
  Al  Al25      1.0  0.004218822724101991  0.006496022181239389  0.9994283675008285  1.0000
  Al  Al26      1.0  0.0067188225327513606  0.00816268917450354  0.9991631808055528  1.0000
  Al  Al27      1.0  0.0017188224287027968  0.0048293557854096605  0.9996935544861492  1.0000
  Al  Al28      1.0  0.008959722695869182  0.0030518420040791484  0.9999634593278915  1.0000
  Al  Al29      1.0  0.0017490174688368813  0.0071672994994780425  0.9991888500130618  1.0000
  Al  Al30      1.0  0.004147546026873573  0.002028687012297552  0.9999867857776181  1.0000
  Al  Al31      1.0  0.009249017621873327  0.005500633103648315  0.9994540370596362  1.0000
  Al  Al32      1.0  0.006749017813223959  0.0038339661103841635  0.9997192234646476  1.0000
  Mo  Mo1       1.0  0.003029985665341291  0.008445438756414151  0.9998327248372743  1.0000
  Mo  Mo2       1.0  0.005483920004562082  0.0001649944355674717  0.9995737953502253  1.0000
  Mo  Mo3       1.0  0.00048391976773077845  0.003498327749982048  0.9990434218986224  1.0000
  Mo  Mo4       1.0  0.007983920257566229  0.0018316610554351084  0.9993086086549532  1.0000
  Mo  Mo5       1.0  0.008841923180307892  0.007737085852722263  0.9994182666969417  1.0000
  Mo  Mo6       1.0  0.001341922840423262  0.009403752248551991  0.9991530796505452  1.0000
  Mo  Mo7       1.0  0.006341923371658524  0.006070418859458112  0.999683453101953  1.0000
  Mo  Mo8       1.0  0.003632108611795326  0.004186310230853249  0.999923193091321  1.0000
  Mo  Mo9       1.0  0.007125917087370254  0.005926235827995169  0.999198951168823  1.0000
  Mo  Mo10      1.0  0.009417292426452811  0.0009346039336449373  0.9999899564817496  1.0000
  Mo  Mo11      1.0  0.004625916791971059  0.004259569432165441  0.9994641378638792  1.0000
  Mo  Mo12      1.0  0.0021259169267949614  0.0025929027376185012  0.9997293248491315  1.0000
