data_image0
_chemical_formula_structural       HSn24Rh12
_chemical_formula_sum              "H1 Sn24 Rh12"
_cell_length_a       6.5232157707214355
_cell_length_b       13.33164074097324
_cell_length_c       104.9508056640625
_cell_angle_alpha    77.58804321565304
_cell_angle_beta     90.0
_cell_angle_gamma    90.0

_space_group_name_H-M_alt    "P 1"
_space_group_IT_number       1

loop_
  _space_group_symop_operation_xyz
  'x, y, z'

loop_
  _atom_site_type_symbol
  _atom_site_label
  _atom_site_symmetry_multiplicity
  _atom_site_fract_x
  _atom_site_fract_y
  _atom_site_fract_z
  _atom_site_occupancy
  H   H1        1.0  0.0010282091460589867  0.004930286320835703  0.9998653874744998  1.0000
  Sn  Sn1       1.0  0.0016204112714658255  0.007792022420898783  0.9994402549319191  1.0000
  Sn  Sn2       1.0  0.0018130159153665797  0.0011616887420062307  0.9997269502656472  1.0000
  Sn  Sn3       1.0  0.0016204112714658255  0.004458689419464174  0.9991627378801904  1.0000
  Sn  Sn4       1.0  0.003380112267843796  0.009458689064675882  0.9991627374128166  1.0000
  Sn  Sn5       1.0  0.003380112267843796  0.0027920224895674845  0.9994402548391755  1.0000
  Sn  Sn6       1.0  0.0031874378091837274  0.006161548188618531  0.9997269502185656  1.0000
  Sn  Sn7       1.0  0.0016204112714658255  0.0005387889399149226  0.999399165791583  1.0000
  Sn  Sn8       1.0  0.0016359748230559915  0.003833764176790814  0.9996942063314073  1.0000
  Sn  Sn9       1.0  0.0016204112714658255  0.00720545551502332  0.9991216483652241  1.0000
  Sn  Sn10      1.0  0.0033629366948887715  0.008833770116633515  0.9996942062600993  1.0000
  Sn  Sn11      1.0  0.003380112267843796  0.002205455583692022  0.9991216485564451  1.0000
  Sn  Sn12      1.0  0.003380112267843796  0.005538788871246221  0.9993991658843266  1.0000
  Sn  Sn13      1.0  0.006620411128695357  0.0011253560603800782  0.9993014965953229  1.0000
  Sn  Sn14      1.0  0.006690786119329614  0.0044613025496853765  0.9995674740927691  1.0000
  Sn  Sn15      1.0  0.007035286692238952  0.007903320652696194  0.9998583760852358  1.0000
  Sn  Sn16      1.0  0.008309490284298263  0.009461210922747675  0.9995674062621035  1.0000
  Sn  Sn17      1.0  0.00796494859349387  0.002902523306065816  0.9998583733435077  1.0000
  Sn  Sn18      1.0  0.008380112553384734  0.006125355777121684  0.9993014961259961  1.0000
  Sn  Sn19      1.0  0.006620411128695357  0.00720545551502332  0.9995379246902496  1.0000
  Sn  Sn20      1.0  0.0067396404605569735  0.0006535122378018383  0.9998109876654737  1.0000
  Sn  Sn21      1.0  0.006620411128695357  0.0038721222274691216  0.9992604070784036  1.0000
  Sn  Sn22      1.0  0.008380112553384734  0.00887212215880042  0.9992604071711472  1.0000
  Sn  Sn23      1.0  0.008380112553384734  0.002205455583692022  0.999537924597506  1.0000
  Sn  Sn24      1.0  0.008261214449011069  0.005653344860702517  0.999810977560107  1.0000
  Rh  Rh1       1.0  0.005000261555499107  0.0008320724643825516  0.9995584690729775  1.0000
  Rh  Rh2       1.0  0.005170065327197934  0.00437597367641169  0.999799065570327  1.0000
  Rh  Rh3       1.0  0.005000261555499107  0.007498738967961052  0.9992809516485716  1.0000
  Rh  Rh4       1.0  0.005000261555499107  0.009165405611738151  0.9994197104544946  1.0000
  Rh  Rh5       1.0  0.0050002843987741385  0.002526153299086146  0.9996865570901453  1.0000
  Rh  Rh6       1.0  0.005000261555499107  0.005832072324183952  0.9991421928426485  1.0000
  Rh  Rh7       1.0  2.6184999805555543e-07  0.0008320724643825516  0.9991421930319166  1.0000
  Rh  Rh8       1.0  2.6184999805555543e-07  0.004165405680406853  0.999419710361751  1.0000
  Rh  Rh9       1.0  0.009999738444500892  0.007526232771663639  0.9996865800000516  1.0000
  Rh  Rh10      1.0  2.6184999805555543e-07  0.0024987390366297533  0.999280951555828  1.0000
  Rh  Rh11      1.0  2.6184999805555543e-07  0.005832072324183952  0.9995584691676741  1.0000
  Rh  Rh12      1.0  0.009830521173888492  0.009376155007563445  0.999799041400679  1.0000
