data_image0
_chemical_formula_structural       COInAsPt5InAsPt5InAsPt5InAsPt5
_chemical_formula_sum              "C1 O1 In4 As4 Pt20"
_cell_length_a       8.166007995605469
_cell_length_b       8.274114905777836
_cell_length_c       102.66403198242188
_cell_angle_alpha    119.56872394231546
_cell_angle_beta     90.0
_cell_angle_gamma    90.0

_space_group_name_H-M_alt    "P 1"
_space_group_IT_number       1

loop_
  _space_group_symop_operation_xyz
  'x, y, z'

loop_
  _atom_site_type_symbol
  _atom_site_label
  _atom_site_symmetry_multiplicity
  _atom_site_fract_x
  _atom_site_fract_y
  _atom_site_fract_z
  _atom_site_occupancy
  C   C1        1.0  0.005000000273716874  0.003953624888179135  0.0002954331642198427  1.0000
  O   O1        1.0  0.005000000273716874  0.003953624888179135  0.00041231951757044665  1.0000
  In  In1       1.0  0.002500000136858437  7.046140433772529e-05  0.9996030729287785  1.0000
  As  As1       1.0  0.0  0.005070461515632658  0.9996030730493206  1.0000
  Pt  Pt1       1.0  0.002500000136858437  0.0029212285027470117  0.9995175968916599  1.0000
  Pt  Pt2       1.0  0.002500000136858437  0.007219694528518305  0.9996885492069815  1.0000
  Pt  Pt3       1.0  0.0  0.0029212285027470117  0.9997164494758987  1.0000
  Pt  Pt4       1.0  0.0  0.007219694528518305  0.9994896963324528  1.0000
  Pt  Pt5       1.0  0.0  7.046140433772529e-05  0.9998019255130173  1.0000
  In  In2       1.0  0.002500000136858437  0.00015447419616939698  6.143522208683595e-06  1.0000
  As  As2       1.0  0.0  0.005181999744371587  2.147793031602714e-05  1.0000
  Pt  Pt6       1.0  0.002500000136858437  0.00303112060178162  0.9999137543898994  1.0000
  Pt  Pt7       1.0  0.002500000136858437  0.0071929511326333136  8.123731923247849e-05  1.0000
  Pt  Pt8       1.0  0.010000000547433748  0.002765955247783643  0.00010146088547352651  1.0000
  Pt  Pt9       1.0  0.0  0.007219694528518305  0.9998874017912203  1.0000
  Pt  Pt10      1.0  0.010000000547433748  0.009929538235894935  0.00018052175093586113  1.0000
  In  In3       1.0  0.007500000182477916  7.046140433772529e-05  0.9996030729287785  1.0000
  As  As3       1.0  0.005000000273716874  0.005070461515632658  0.9996030730493206  1.0000
  Pt  Pt11      1.0  0.007500000182477916  0.0029212285027470117  0.9995175968916599  1.0000
  Pt  Pt12      1.0  0.007500000182477916  0.007219694528518305  0.9996885492069815  1.0000
  Pt  Pt13      1.0  0.005000000273716874  0.0029212285027470117  0.9997164494758987  1.0000
  Pt  Pt14      1.0  0.005000000273716874  0.007219694528518305  0.9994896963324528  1.0000
  Pt  Pt15      1.0  0.005000000273716874  7.046140433772529e-05  0.9998019255130173  1.0000
  In  In4       1.0  0.007500000182477916  0.00015447419616939698  6.143522208683595e-06  1.0000
  As  As4       1.0  0.005000000273716874  0.005181999744371587  2.147793031602714e-05  1.0000
  Pt  Pt16      1.0  0.007500000182477916  0.00303112060178162  0.9999137543898994  1.0000
  Pt  Pt17      1.0  0.007500000182477916  0.0071929511326333136  8.123731923247849e-05  1.0000
  Pt  Pt18      1.0  0.005000000273716874  0.002765955247783643  0.00010146088547352651  1.0000
  Pt  Pt19      1.0  0.005000000273716874  0.007219694528518305  0.9998874017912203  1.0000
  Pt  Pt20      1.0  0.005000000273716874  0.009929538235894935  0.00018052175093586113  1.0000
