data_image0
_chemical_formula_structural       COGa3Mn6V3Ga3Mn6V3Ga3Mn6V3Ga3Mn6V3
_chemical_formula_sum              "C1 O1 Ga12 Mn24 V12"
_cell_length_a       8.21436595916748
_cell_length_b       8.214365345269954
_cell_length_c       100.18150329589844
_cell_angle_alpha    90.0
_cell_angle_beta     90.0
_cell_angle_gamma    119.99999863169886

_space_group_name_H-M_alt    "P 1"
_space_group_IT_number       1

loop_
  _space_group_symop_operation_xyz
  'x, y, z'

loop_
  _atom_site_type_symbol
  _atom_site_label
  _atom_site_symmetry_multiplicity
  _atom_site_fract_x
  _atom_site_fract_y
  _atom_site_fract_z
  _atom_site_occupancy
  C   C1        1.0  0.004166674054013933  0.001666662351647982  0.0001579767119615505  1.0000
  O   O1        1.0  0.004166674054013933  0.001666662351647982  0.00027775895039140237  1.0000
  Ga  Ga1       1.0  0.0024999978232950436  0.0033333362239769183  0.9992881971746799  1.0000
  Ga  Ga2       1.0  0.000833338493911566  0.009999997151249801  0.9999701707563557  1.0000
  Ga  Ga3       1.0  0.004166664341164169  0.0016666696829904075  0.9996229396426888  1.0000
  Mn  Mn1       1.0  0.0008333313481151576  2.9999999588076078e-09  0.9997066249622077  1.0000
  Mn  Mn2       1.0  0.004166664341164169  0.0016666696829904075  0.9993718827916821  1.0000
  Mn  Mn3       1.0  0.0025000094325498276  0.0033333275834662025  0.0  1.0000
  Mn  Mn4       1.0  0.0024999978232950436  0.0033333362239769183  0.9995392540256866  1.0000
  Mn  Mn5       1.0  0.0008333313481151576  2.9999999588076078e-09  0.9992045115576776  1.0000
  Mn  Mn6       1.0  0.0041666683431892705  0.0016666668028201689  0.9998904928341276  1.0000
  V   V1        1.0  0.0008333313481151576  2.9999999588076078e-09  0.9994555684086843  1.0000
  V   V2        1.0  0.004166664341164169  0.0016666696829904075  0.9991208259406754  1.0000
  V   V3        1.0  0.0024999969122066175  0.0033333370094778924  0.9997794143615599  1.0000
  Ga  Ga4       1.0  0.002499997801371533  0.008333336370603767  0.9992881971746799  1.0000
  Ga  Ga5       1.0  0.0008333387425896615  0.004999997004622952  0.9999701707563557  1.0000
  Ga  Ga6       1.0  0.004166664319240657  0.006666669829617256  0.9996229396426888  1.0000
  Mn  Mn7       1.0  0.0008333310786713341  0.005000002764963429  0.9997066249622077  1.0000
  Mn  Mn8       1.0  0.004166664319240657  0.006666669829617256  0.9993718827916821  1.0000
  Mn  Mn9       1.0  0.0025000092230208575  0.008333327468259393  0.0  1.0000
  Mn  Mn10      1.0  0.002499997801371533  0.008333336370603767  0.9995392540256866  1.0000
  Mn  Mn11      1.0  0.0008333310786713341  0.005000002764963429  0.9992045115576776  1.0000
  Mn  Mn12      1.0  0.0041666681336603  0.006666666687613359  0.9998904928341276  1.0000
  V   V4        1.0  0.0008333310786713341  0.005000002764963429  0.9994555684086843  1.0000
  V   V5        1.0  0.004166664319240657  0.006666669829617256  0.9991208259406754  1.0000
  V   V6        1.0  0.0024999967026776474  0.008333336894271083  0.9997794143615599  1.0000
  Ga  Ga7       1.0  0.0074999976600317415  0.0033333362239769183  0.9992881971746799  1.0000
  Ga  Ga8       1.0  0.005833338387336911  0.009999997151249801  0.9999701707563557  1.0000
  Ga  Ga9       1.0  0.009166663724391694  0.0016666696829904075  0.9996229396426888  1.0000
  Mn  Mn13      1.0  0.005833331241540503  2.9999999588076078e-09  0.9997066249622077  1.0000
  Mn  Mn14      1.0  0.009166663724391694  0.0016666696829904075  0.9993718827916821  1.0000
  Mn  Mn15      1.0  0.00750000921259788  0.0033333275834662025  0.0  1.0000
  Mn  Mn16      1.0  0.0074999976600317415  0.0033333362239769183  0.9995392540256866  1.0000
  Mn  Mn17      1.0  0.005833331241540503  2.9999999588076078e-09  0.9992045115576776  1.0000
  Mn  Mn18      1.0  0.009166667726416798  0.0016666668028201689  0.9998904928341276  1.0000
  V   V7        1.0  0.005833331241540503  2.9999999588076078e-09  0.9994555684086843  1.0000
  V   V8        1.0  0.009166663724391694  0.0016666696829904075  0.9991208259406754  1.0000
  V   V9        1.0  0.0074999966922546695  0.0033333370094778924  0.9997794143615599  1.0000
  Ga  Ga10      1.0  0.007499997524730939  0.008333336370603767  0.9992881971746799  1.0000
  Ga  Ga11      1.0  0.005833338465949068  0.004999997004622952  0.9999701707563557  1.0000
  Ga  Ga12      1.0  0.009166664269354648  0.006666669829617256  0.9996229396426888  1.0000
  Mn  Mn19      1.0  0.005833330915408033  0.005000002764963429  0.9997066249622077  1.0000
  Mn  Mn20      1.0  0.009166664269354648  0.006666669829617256  0.9993718827916821  1.0000
  Mn  Mn21      1.0  0.007500008946380263  0.008333327468259393  0.0  1.0000
  Mn  Mn22      1.0  0.007499997524730939  0.008333336370603767  0.9995392540256866  1.0000
  Mn  Mn23      1.0  0.005833330915408033  0.005000002764963429  0.9992045115576776  1.0000
  Mn  Mn24      1.0  0.009166667686953766  0.006666666687613359  0.9998904928341276  1.0000
  V   V10       1.0  0.005833330915408033  0.005000002764963429  0.9994555684086843  1.0000
  V   V11       1.0  0.009166664269354648  0.006666669829617256  0.9991208259406754  1.0000
  V   V12       1.0  0.007499996426037053  0.008333336894271083  0.9997794143615599  1.0000
