data_image0
_chemical_formula_structural       COCu4Pt4Zn8Cu4Pt4Zn8Cu4Pt4Zn8Cu4Pt4Zn8
_chemical_formula_sum              "C1 O1 Cu16 Pt16 Zn32"
_cell_length_a       8.674238204956055
_cell_length_b       8.674238204956055
_cell_length_c       106.80167388916016
_cell_angle_alpha    90.0
_cell_angle_beta     90.0
_cell_angle_gamma    90.0

_space_group_name_H-M_alt    "P 1"
_space_group_IT_number       1

loop_
  _space_group_symop_operation_xyz
  'x, y, z'

loop_
  _atom_site_type_symbol
  _atom_site_label
  _atom_site_symmetry_multiplicity
  _atom_site_fract_x
  _atom_site_fract_y
  _atom_site_fract_z
  _atom_site_occupancy
  C   C1        1.0  5.450000232579362e-09  0.0012500042474186414  0.00016217455302485395  1.0000
  O   O1        1.0  5.450000232579362e-09  0.0012500042474186414  0.00027453257028916026  1.0000
  Cu  Cu1       1.0  0.0025000039854443873  0.0037499999656427207  0.9998612176710366  1.0000
  Cu  Cu2       1.0  8.500000113802143e-10  0.0012499999527587412  0.9995717679885695  1.0000
  Cu  Cu3       1.0  0.0025000009791824574  0.0037499999656427207  0.9992846181833624  1.0000
  Cu  Cu4       1.0  8.500000113802143e-10  0.0012499999527587412  0.9989974686571991  1.0000
  Pt  Pt1       1.0  2.6499999421214684e-09  0.001250003710586154  0.9998662772893915  1.0000
  Pt  Pt2       1.0  0.0025000009791824574  0.0037499999656427207  0.9995717679885695  1.0000
  Pt  Pt3       1.0  8.500000113802143e-10  0.0012499999527587412  0.9992846181833624  1.0000
  Pt  Pt4       1.0  0.0025000009791824574  0.0037499999656427207  0.9989974686571991  1.0000
  Zn  Zn1       1.0  0.0025000054885753525  0.0012500042474186414  0.0  1.0000
  Zn  Zn2       1.0  0.00999999962206993  0.0037499995361767306  0.0  1.0000
  Zn  Zn3       1.0  8.500000113802143e-10  0.0037499999656427207  0.9997153426121295  1.0000
  Zn  Zn4       1.0  0.0025000009791824574  0.0012499999527587412  0.9997153426121295  1.0000
  Zn  Zn5       1.0  0.0025000009791824574  0.0012499999527587412  0.9994281928069224  1.0000
  Zn  Zn6       1.0  8.500000113802143e-10  0.0037499999656427207  0.9994281928069224  1.0000
  Zn  Zn7       1.0  8.500000113802143e-10  0.0037499999656427207  0.9991410432807589  1.0000
  Zn  Zn8       1.0  0.0025000009791824574  0.0012499999527587412  0.9991410432807589  1.0000
  Cu  Cu5       1.0  0.0025000039854443873  0.008750000206143676  0.9998612176710366  1.0000
  Cu  Cu6       1.0  8.500000113802143e-10  0.006250000085893198  0.9995717679885695  1.0000
  Cu  Cu7       1.0  0.0025000009791824574  0.008750000206143676  0.9992846181833624  1.0000
  Cu  Cu8       1.0  8.500000113802143e-10  0.006250000085893198  0.9989974686571991  1.0000
  Pt  Pt5       1.0  2.6499999421214684e-09  0.006250003951087108  0.9998662772893915  1.0000
  Pt  Pt6       1.0  0.0025000009791824574  0.008750000206143676  0.9995717679885695  1.0000
  Pt  Pt7       1.0  8.500000113802143e-10  0.006250000085893198  0.9992846181833624  1.0000
  Pt  Pt8       1.0  0.0025000009791824574  0.008750000206143676  0.9989974686571991  1.0000
  Zn  Zn9       1.0  0.0025000054885753525  0.0062500043805530986  0.0  1.0000
  Zn  Zn10      1.0  0.00999999962206993  0.008750000206143676  0.0  1.0000
  Zn  Zn11      1.0  8.500000113802143e-10  0.008750000206143676  0.9997153426121295  1.0000
  Zn  Zn12      1.0  0.0025000009791824574  0.006250000085893198  0.9997153426121295  1.0000
  Zn  Zn13      1.0  0.0025000009791824574  0.006250000085893198  0.9994281928069224  1.0000
  Zn  Zn14      1.0  8.500000113802143e-10  0.008750000206143676  0.9994281928069224  1.0000
  Zn  Zn15      1.0  8.500000113802143e-10  0.008750000206143676  0.9991410432807589  1.0000
  Zn  Zn16      1.0  0.0025000009791824574  0.006250000085893198  0.9991410432807589  1.0000
  Cu  Cu9       1.0  0.007500004225945342  0.0037499999656427207  0.9998612176710366  1.0000
  Cu  Cu10      1.0  0.0050000010994329346  0.0012499999527587412  0.9995717679885695  1.0000
  Cu  Cu11      1.0  0.007500000790217422  0.0037499999656427207  0.9992846181833624  1.0000
  Cu  Cu12      1.0  0.0050000010994329346  0.0012499999527587412  0.9989974686571991  1.0000
  Pt  Pt9       1.0  0.005000002817296894  0.001250003710586154  0.9998662772893915  1.0000
  Pt  Pt10      1.0  0.007500000790217422  0.0037499999656427207  0.9995717679885695  1.0000
  Pt  Pt11      1.0  0.0050000010994329346  0.0012499999527587412  0.9992846181833624  1.0000
  Pt  Pt12      1.0  0.007500000790217422  0.0037499999656427207  0.9989974686571991  1.0000
  Zn  Zn17      1.0  0.007500005943809302  0.0012500042474186414  0.0  1.0000
  Zn  Zn18      1.0  0.004999999381568974  0.0037499995361767306  0.0  1.0000
  Zn  Zn19      1.0  0.0050000010994329346  0.0037499999656427207  0.9997153426121295  1.0000
  Zn  Zn20      1.0  0.007500000790217422  0.0012499999527587412  0.9997153426121295  1.0000
  Zn  Zn21      1.0  0.007500000790217422  0.0012499999527587412  0.9994281928069224  1.0000
  Zn  Zn22      1.0  0.0050000010994329346  0.0037499999656427207  0.9994281928069224  1.0000
  Zn  Zn23      1.0  0.0050000010994329346  0.0037499999656427207  0.9991410432807589  1.0000
  Zn  Zn24      1.0  0.007500000790217422  0.0012499999527587412  0.9991410432807589  1.0000
  Cu  Cu13      1.0  0.007500004225945342  0.008750000206143676  0.9998612176710366  1.0000
  Cu  Cu14      1.0  0.0050000010994329346  0.006250000085893198  0.9995717679885695  1.0000
  Cu  Cu15      1.0  0.007500000790217422  0.008750000206143676  0.9992846181833624  1.0000
  Cu  Cu16      1.0  0.0050000010994329346  0.006250000085893198  0.9989974686571991  1.0000
  Pt  Pt13      1.0  0.005000002817296894  0.006250003951087108  0.9998662772893915  1.0000
  Pt  Pt14      1.0  0.007500000790217422  0.008750000206143676  0.9995717679885695  1.0000
  Pt  Pt15      1.0  0.0050000010994329346  0.006250000085893198  0.9992846181833624  1.0000
  Pt  Pt16      1.0  0.007500000790217422  0.008750000206143676  0.9989974686571991  1.0000
  Zn  Zn25      1.0  0.007500005943809302  0.0062500043805530986  0.0  1.0000
  Zn  Zn26      1.0  0.004999999381568974  0.008750000206143676  0.0  1.0000
  Zn  Zn27      1.0  0.0050000010994329346  0.008750000206143676  0.9997153426121295  1.0000
  Zn  Zn28      1.0  0.007500000790217422  0.006250000085893198  0.9997153426121295  1.0000
  Zn  Zn29      1.0  0.007500000790217422  0.006250000085893198  0.9994281928069224  1.0000
  Zn  Zn30      1.0  0.0050000010994329346  0.008750000206143676  0.9994281928069224  1.0000
  Zn  Zn31      1.0  0.0050000010994329346  0.008750000206143676  0.9991410432807589  1.0000
  Zn  Zn32      1.0  0.007500000790217422  0.006250000085893198  0.9991410432807589  1.0000
