data_image0
_chemical_formula_structural       COCa20As12
_chemical_formula_sum              "C1 O1 Ca20 As12"
_cell_length_a       6.889602184295654
_cell_length_b       14.958147048950195
_cell_length_c       104.54435729980469
_cell_angle_alpha    90.0
_cell_angle_beta     90.0
_cell_angle_gamma    90.0

_space_group_name_H-M_alt    "P 1"
_space_group_IT_number       1

loop_
  _space_group_symop_operation_xyz
  'x, y, z'

loop_
  _atom_site_type_symbol
  _atom_site_label
  _atom_site_symmetry_multiplicity
  _atom_site_fract_x
  _atom_site_fract_y
  _atom_site_fract_z
  _atom_site_occupancy
  C   C1        1.0  0.008749994506366491  0.009999941663095258  0.00016567222698684754  1.0000
  O   O1        1.0  0.008749994506366491  0.009999941663095258  0.00028045570286242894  1.0000
  Ca  Ca1       1.0  0.0012732294562071069  0.0035442618354103606  0.999884676033899  1.0000
  Ca  Ca2       1.0  0.0012499941170538789  0.008333391477641281  0.9994726956265374  1.0000
  Ca  Ca3       1.0  0.006226743762329531  0.00645582477337547  0.9998846959887069  1.0000
  Ca  Ca4       1.0  0.00624999437659562  0.0016667250168539462  0.9994726956265374  1.0000
  Ca  Ca5       1.0  0.0012732421629381592  0.006455822780994843  0.9998846971289816  1.0000
  Ca  Ca6       1.0  0.0012499941170538789  0.0016667250168539462  0.9994726956265374  1.0000
  Ca  Ca7       1.0  0.0062267594429763614  0.0035442625825530955  0.9998846754637616  1.0000
  Ca  Ca8       1.0  0.00624999437659562  0.008333391477641281  0.9994726956265374  1.0000
  Ca  Ca9       1.0  0.008749982610703377  0.008691655882840113  0.0  1.0000
  Ca  Ca10      1.0  0.008749994506366491  0.0037313623152776254  0.9995774985627065  1.0000
  Ca  Ca11      1.0  0.0037499942468247494  0.0050000584962951915  0.9996823017839443  1.0000
  Ca  Ca12      1.0  0.0037499942468247494  5.834999767665615e-08  0.9992692671925881  1.0000
  Ca  Ca13      1.0  0.0037499942468247494  0.0037313623152776254  0.9993678924052996  1.0000
  Ca  Ca14      1.0  0.0037499872175692736  0.008679445578171005  0.9997822023939493  1.0000
  Ca  Ca15      1.0  0.008750006402029603  0.0013082271295504538  0.9999999920180769  1.0000
  Ca  Ca16      1.0  0.008749994506366491  0.006268754179217601  0.9995774985627065  1.0000
  Ca  Ca17      1.0  0.008749994506366491  0.0050000584962951915  0.9992630894691304  1.0000
  Ca  Ca18      1.0  0.008749994506366491  5.834999767665615e-08  0.9996761243455553  1.0000
  Ca  Ca19      1.0  0.0037499942468247494  0.006268754179217601  0.9993678924052996  1.0000
  Ca  Ca20      1.0  0.003749999653944346  0.0013206605808497218  0.9997821915613393  1.0000
  As  As1       1.0  0.008749994506366491  0.006948908594613597  0.9993117070780337  1.0000
  As  As2       1.0  0.008749993965654531  0.0019819467781420096  0.9997461030061802  1.0000
  As  As3       1.0  0.003749994787536709  0.004999987268687797  0.9999680175741696  1.0000
  As  As4       1.0  0.0037499942468247494  5.834999767665615e-08  0.9995637531208863  1.0000
  As  As5       1.0  0.0037499942468247494  0.0019489084999755174  0.9992206495836847  1.0000
  As  As6       1.0  0.0037499942468247494  0.006948908594613597  0.9996336844601097  1.0000
  As  As7       1.0  0.008749994506366491  0.0030512081489292085  0.9993117070780337  1.0000
  As  As8       1.0  0.00874999504707845  0.008018157014926725  0.9997460984450812  1.0000
  As  As9       1.0  0.00874999504707845  0.0049999723258330984  0.9997818603115282  1.0000
  As  As10      1.0  0.008749994506366491  5.834999767665615e-08  0.9993816381321884  1.0000
  As  As11      1.0  0.0037499942468247494  0.008051208119043498  0.9992206495836847  1.0000
  As  As12      1.0  0.0037499942468247494  0.0030512081489292085  0.9996336844601097  1.0000
