data_image0
_chemical_formula_structural       CONa16Ca4Sn24
_chemical_formula_sum              "C1 O1 Na16 Ca4 Sn24"
_cell_length_a       7.31777286529541
_cell_length_b       17.780027389526367
_cell_length_c       100.79591369628906
_cell_angle_alpha    90.0
_cell_angle_beta     90.0
_cell_angle_gamma    90.0

_space_group_name_H-M_alt    "P 1"
_space_group_IT_number       1

loop_
  _space_group_symop_operation_xyz
  'x, y, z'

loop_
  _atom_site_type_symbol
  _atom_site_label
  _atom_site_symmetry_multiplicity
  _atom_site_fract_x
  _atom_site_fract_y
  _atom_site_fract_z
  _atom_site_occupancy
  C   C1        1.0  0.009806040156304227  5.891224952049847e-05  1.8047102180959923e-05  1.0000
  O   O1        1.0  0.009806040156304227  5.891224952049847e-05  0.00013709919738997522  1.0000
  Na  Na1       1.0  0.0023060494316384694  0.005433875637547462  0.9998211084470434  1.0000
  Na  Na2       1.0  0.002306047140803997  0.0004653636262411022  0.9993343824948784  1.0000
  Na  Na3       1.0  0.002306040777374906  0.007593281460610576  0.9999999994086601  1.0000
  Na  Na4       1.0  0.002306047140803997  0.0023556746819704878  0.9995268961535999  1.0000
  Na  Na5       1.0  0.007306049441819957  0.00468392934198719  0.9998211084470434  1.0000
  Na  Na6       1.0  0.00730604689644832  0.009652445281813544  0.9993343824948784  1.0000
  Na  Na7       1.0  0.00730604129663072  0.00252453252832993  0.0  1.0000
  Na  Na8       1.0  0.00730604689644832  0.007762133649901227  0.9995268961535999  1.0000
  Na  Na9       1.0  0.007306050459968611  0.006846622550581403  0.9998382519818686  1.0000
  Na  Na10      1.0  0.00730604689644832  0.0017255710840278036  0.9993343824948784  1.0000
  Na  Na11      1.0  0.002306047140803997  0.007355674514353635  0.9996510804877364  1.0000
  Na  Na12      1.0  0.002306047140803997  0.0023556746819704878  0.9991418685404868  1.0000
  Na  Na13      1.0  0.0023060468862668333  0.003271192905006568  0.9998382519818686  1.0000
  Na  Na14      1.0  0.002306047140803997  0.00839223724784391  0.9993343824948784  1.0000
  Na  Na15      1.0  0.00730604689644832  0.002762134027039146  0.9996510804877364  1.0000
  Na  Na16      1.0  0.00730604689644832  0.007762133649901227  0.9991418685404868  1.0000
  Ca  Ca1       1.0  0.002306047140803997  0.005058904165935857  0.9993343824948784  1.0000
  Ca  Ca2       1.0  0.002306040777374906  0.009941087369413062  0.9998462090514628  1.0000
  Ca  Ca3       1.0  0.00730604689644832  0.005058904165935857  0.9993343824948784  1.0000
  Ca  Ca4       1.0  0.0073060387512590835  0.00017673684677449526  0.9998462102341426  1.0000
  Sn  Sn1       1.0  0.005298231277858991  0.008515082801384488  0.9998519089766872  1.0000
  Sn  Sn2       1.0  0.00519395961970307  0.0033706818881542354  0.9993343824948784  1.0000
  Sn  Sn3       1.0  0.009313825352611759  0.008515088667974346  0.9998519101593669  1.0000
  Sn  Sn4       1.0  0.009418133664119243  0.0033706818881542354  0.9993343824948784  1.0000
  Sn  Sn5       1.0  0.00519395961970307  0.005903015514347735  0.9995922811968598  1.0000
  Sn  Sn6       1.0  0.00519395961970307  0.0009030155772040544  0.9990830692496103  1.0000
  Sn  Sn7       1.0  0.00019395994360161013  0.004214793236566113  0.9995922811968598  1.0000
  Sn  Sn8       1.0  0.00019395994360161013  0.009214792649907128  0.9990830692496103  1.0000
  Sn  Sn9       1.0  0.004313821015298491  0.0016027477397202595  0.9998519083853473  1.0000
  Sn  Sn10      1.0  0.004418134417549247  0.006747126862759612  0.9993343824948784  1.0000
  Sn  Sn11      1.0  0.004418134417549247  0.004214793236566113  0.999076483201557  1.0000
  Sn  Sn12      1.0  0.004418134417549247  0.009214792649907128  0.9995856954444764  1.0000
  Sn  Sn13      1.0  0.00019395994360161013  0.004214793236566113  0.999076483201557  1.0000
  Sn  Sn14      1.0  0.00019395994360161013  0.009214792649907128  0.9995856954444764  1.0000
  Sn  Sn15      1.0  0.009418133664119243  0.005903015514347735  0.9995922811968598  1.0000
  Sn  Sn16      1.0  0.009418133664119243  0.0009030155772040544  0.9990830692496103  1.0000
  Sn  Sn17      1.0  0.0002982340357691587  0.0016027442826226648  0.9998519083853473  1.0000
  Sn  Sn18      1.0  0.00019395994360161013  0.006747126862759612  0.9993343824948784  1.0000
  Sn  Sn19      1.0  0.009418133664119243  0.005903015514347735  0.999076483201557  1.0000
  Sn  Sn20      1.0  0.009418133664119243  0.0009030155772040544  0.9995856954444764  1.0000
  Sn  Sn21      1.0  0.004418134417549247  0.004214793236566113  0.9995922811968598  1.0000
  Sn  Sn22      1.0  0.004418134417549247  0.009214792649907128  0.9990830692496103  1.0000
  Sn  Sn23      1.0  0.00519395961970307  0.005903015514347735  0.999076483201557  1.0000
  Sn  Sn24      1.0  0.00519395961970307  0.0009030155772040544  0.9995856954444764  1.0000
