data_image0
_chemical_formula_structural       COCa32Pb16
_chemical_formula_sum              "C1 O1 Ca32 Pb16"
_cell_length_a       12.764094400312464
_cell_length_b       13.794759840512524
_cell_length_c       103.8874740600586
_cell_angle_alpha    90.16150227901777
_cell_angle_beta     94.15892339495868
_cell_angle_gamma    100.26240480889486

_space_group_name_H-M_alt    "P 1"
_space_group_IT_number       1

loop_
  _space_group_symop_operation_xyz
  'x, y, z'

loop_
  _atom_site_type_symbol
  _atom_site_label
  _atom_site_symmetry_multiplicity
  _atom_site_fract_x
  _atom_site_fract_y
  _atom_site_fract_z
  _atom_site_occupancy
  C   C1        1.0  0.000812255683664053  0.0016628404350064365  0.00011026843451053489  1.0000
  O   O1        1.0  0.000812255683664053  0.0016628404350064365  0.00022577826307521544  1.0000
  Ca  Ca1       1.0  0.0014372480952610034  0.007213581540839667  0.9995574031646547  1.0000
  Ca  Ca2       1.0  0.0064372481931549  0.0029278675123494396  0.9993244077649922  1.0000
  Ca  Ca3       1.0  0.008721958352866032  0.004401639069281446  0.9991327019287735  1.0000
  Ca  Ca4       1.0  0.0037219583127332304  0.008687353372248564  0.9993656976159245  1.0000
  Ca  Ca5       1.0  0.00213656973080079  0.0023284489562921764  0.9992918198140811  1.0000
  Ca  Ca6       1.0  0.007136569819939947  0.006614163533736187  0.9995248157721458  1.0000
  Ca  Ca7       1.0  0.008022636628773555  0.009286771928305827  0.9993982855655318  1.0000
  Ca  Ca8       1.0  0.003022636685948183  0.005001057350861817  0.9991652896087709  1.0000
  Ca  Ca9       1.0  0.009045323504320213  0.0018674412741977947  0.99926675701541  1.0000
  Ca  Ca10      1.0  0.004045323437593017  0.006153155439926467  0.9994997527022728  1.0000
  Ca  Ca11      1.0  0.001113883227664885  0.009747780022115547  0.9994233483676754  1.0000
  Ca  Ca12      1.0  0.006113883068295112  0.005462065444671536  0.999190352678644  1.0000
  Ca  Ca13      1.0  0.0008994058945601747  0.00456394192153288  0.999413353950273  1.0000
  Ca  Ca14      1.0  0.005899405865280102  0.0002782275671013438  0.9991803582624842  1.0000
  Ca  Ca15      1.0  0.00925980067076793  0.007051278963065124  0.9992767514311733  1.0000
  Ca  Ca16      1.0  0.004259800566805013  0.0013369929970448895  0.9995097470416342  1.0000
  Ca  Ca17      1.0  0.0007771995395363503  0.005465623763097335  0.999999474398098  1.0000
  Ca  Ca18      1.0  0.006779807902608919  0.0017943865046659842  0.999843198918794  1.0000
  Ca  Ca19      1.0  0.00872195845776166  0.0029730675434667753  0.9995986932114431  1.0000
  Ca  Ca20      1.0  0.003987843881734058  0.0074188112065902275  0.9998503009539306  1.0000
  Ca  Ca21      1.0  0.0021555290583668506  0.0009662283764030467  0.9997618939805188  1.0000
  Ca  Ca22      1.0  0.0066966107117691675  0.004543685252438285  0.9999907817736535  1.0000
  Ca  Ca23      1.0  0.008018074227407008  0.007903494579182394  0.9998895924783553  1.0000
  Ca  Ca24      1.0  0.003022636697718817  0.0035724860995240385  0.9996312814644559  1.0000
  Ca  Ca25      1.0  0.009045323609215842  0.00043886974838312467  0.9997327485849509  1.0000
  Ca  Ca26      1.0  0.0038048946631893863  0.004744903987368407  0.9999265228216896  1.0000
  Ca  Ca27      1.0  0.0011574557369697415  0.008456432669421893  0.9998679873826981  1.0000
  Ca  Ca28      1.0  0.006113883120001951  0.004033493644379974  0.999656343960737  1.0000
  Ca  Ca29      1.0  0.0008049702042122047  0.0028318019725903244  0.9998805233116527  1.0000
  Ca  Ca30      1.0  0.00589940607057314  0.00884965649897689  0.9996463499091117  1.0000
  Ca  Ca31      1.0  0.00914391299059089  0.005719571979241712  0.9997210064214377  1.0000
  Ca  Ca32      1.0  0.0043740243356931744  0.00025222065858714434  0.9999480944063206  1.0000
  Pb  Pb1       1.0  0.0032926345070515115  0.0005699866734222822  0.9991962200860166  1.0000
  Pb  Pb2       1.0  0.008292634689315662  0.004855700976389401  0.9994292157579372  1.0000
  Pb  Pb3       1.0  0.006866571921709304  0.0010452338735691452  0.9994938855049368  1.0000
  Pb  Pb4       1.0  0.001866571889729359  0.006759519908208603  0.9992608896236315  1.0000
  Pb  Pb5       1.0  0.009385709105926364  0.009633066247848012  0.9991452836415641  1.0000
  Pb  Pb6       1.0  0.004385708975369052  0.003918780144589332  0.9993782792517365  1.0000
  Pb  Pb7       1.0  0.000773497389977714  0.001982154773988437  0.9995448220261862  1.0000
  Pb  Pb8       1.0  0.005773497530519076  0.007696440740008671  0.9993118261291802  1.0000
  Pb  Pb9       1.0  0.003292634702371652  0.009141415553833411  0.9996622114456649  1.0000
  Pb  Pb10      1.0  0.00866646603923202  0.0037475032703592286  0.9999045210615629  1.0000
  Pb  Pb11      1.0  0.006658946243203535  0.009552357964664169  0.9999452791414071  1.0000
  Pb  Pb12      1.0  0.001866571848311204  0.005330948382393933  0.9997268811918686  1.0000
  Pb  Pb13      1.0  0.009385709210821993  0.008204494722033343  0.9996112749242337  1.0000
  Pb  Pb14      1.0  0.0044588980861668456  0.002617056741953497  0.9998641208246617  1.0000
  Pb  Pb15      1.0  0.00061429106461824  0.0004529462614714652  5.6431931786439975e-06  1.0000
  Pb  Pb16      1.0  0.005848697291196728  0.006170021495976177  0.9997940910743693  1.0000
