data_image0
_chemical_formula_structural       HRh8Sn4Ti4
_chemical_formula_sum              "H1 Rh8 Sn4 Ti4"
_cell_length_a       4.515127182006836
_cell_length_b       4.515127182006836
_cell_length_c       108.31212615966797
_cell_angle_alpha    90.0
_cell_angle_beta     90.0
_cell_angle_gamma    90.0

_space_group_name_H-M_alt    "P 1"
_space_group_IT_number       1

loop_
  _space_group_symop_operation_xyz
  'x, y, z'

loop_
  _atom_site_type_symbol
  _atom_site_label
  _atom_site_symmetry_multiplicity
  _atom_site_fract_x
  _atom_site_fract_y
  _atom_site_fract_z
  _atom_site_occupancy
  H   H1        1.0  0.004999997425785529  0.007499999438953256  0.00011375068088068716  1.0000
  Rh  Rh1       1.0  0.005000002376197974  0.002499999125427135  0.9997110175247225  1.0000
  Rh  Rh2       1.0  0.005000004026335455  0.0025000007755646165  0.0  1.0000
  Rh  Rh3       1.0  0.00999999732677728  0.007499999438953256  5.503044477912346e-10  1.0000
  Rh  Rh4       1.0  2.3999999888563146e-09  0.007499999438953256  0.9997110175247225  1.0000
  Rh  Rh5       1.0  0.005000002376197974  0.002499999125427135  0.9991214846243704  1.0000
  Rh  Rh6       1.0  0.005000002376197974  0.002499999125427135  0.9994162507993942  1.0000
  Rh  Rh7       1.0  2.3999999888563146e-09  0.007499999438953256  0.9994162507993942  1.0000
  Rh  Rh8       1.0  2.3999999888563146e-09  0.007499999438953256  0.9991214846243704  1.0000
  Sn  Sn1       1.0  0.005000002376197974  0.007499999438953256  0.9995636338869062  1.0000
  Sn  Sn2       1.0  5.099999902552775e-09  0.0024999995379615053  0.9998678262268161  1.0000
  Sn  Sn3       1.0  0.005000002376197974  0.007499999438953256  0.9989741015368586  1.0000
  Sn  Sn4       1.0  2.3999999888563146e-09  0.002499999125427135  0.9992688677118824  1.0000
  Ti  Ti1       1.0  2.3999999888563146e-09  0.002499999125427135  0.9995636338869062  1.0000
  Ti  Ti2       1.0  0.005000004438869826  0.0075000010890907375  0.9998797502235909  1.0000
  Ti  Ti3       1.0  2.3999999888563146e-09  0.002499999125427135  0.9989741015368586  1.0000
  Ti  Ti4       1.0  0.005000002376197974  0.007499999438953256  0.9992688677118824  1.0000
