data_image0
_chemical_formula_structural       HSb6Pt6Sb6Pt6Sb6Pt6Sb6Pt6
_chemical_formula_sum              "H1 Sb24 Pt24"
_cell_length_a       8.46444998043162
_cell_length_b       10.161059454375492
_cell_length_c       105.18235778808594
_cell_angle_alpha    93.38631911768871
_cell_angle_beta     107.50174708542524
_cell_angle_gamma    65.38529349179846

_space_group_name_H-M_alt    "P 1"
_space_group_IT_number       1

loop_
  _space_group_symop_operation_xyz
  'x, y, z'

loop_
  _atom_site_type_symbol
  _atom_site_label
  _atom_site_symmetry_multiplicity
  _atom_site_fract_x
  _atom_site_fract_y
  _atom_site_fract_z
  _atom_site_occupancy
  H   H1        1.0  0.003939700859574595  0.006195194039036758  0.00027334849295439776  1.0000
  Sb  Sb1       1.0  0.001676921250770404  0.007083333365689329  0.9994993492134827  1.0000
  Sb  Sb2       1.0  0.0016769211981705894  0.000416666687900289  0.9992763564380575  1.0000
  Sb  Sb3       1.0  0.001676921089147541  0.0037500000647119917  0.9990533635369088  1.0000
  Sb  Sb4       1.0  0.0033435879752944033  0.00652777768070979  0.9992020255361376  1.0000
  Sb  Sb5       1.0  0.0033435874447081543  0.009861110981687128  0.9989790326243537  1.0000
  Sb  Sb6       1.0  0.003343588044407911  0.003194444379732453  0.9994250181534134  1.0000
  Pt  Pt1       1.0  1.0254597507981275e-05  0.00847222176923828  0.9992391908773207  1.0000
  Pt  Pt2       1.0  1.0254465200021285e-05  0.0018055555717335534  0.999016198102707  1.0000
  Pt  Pt3       1.0  1.025445377060611e-05  0.005138888872710891  0.9994621837750929  1.0000
  Pt  Pt4       1.0  1.0254419213852316e-05  0.00680555552319956  0.9990161980389825  1.0000
  Pt  Pt5       1.0  1.0254448165351046e-05  0.00013888889596676298  0.9994621838374246  1.0000
  Pt  Pt6       1.0  1.0254372959174651e-05  0.0034722222222222225  0.9992391909368059  1.0000
  Sb  Sb7       1.0  0.001616748999270375  0.007229692477484628  0.0001720891053022661  1.0000
  Sb  Sb8       1.0  0.0016766594251732226  0.0004393587819938676  0.9999487159986681  1.0000
  Sb  Sb9       1.0  0.001676921089147541  0.0037500000647119917  0.9997223418251745  1.0000
  Sb  Sb10      1.0  0.0033435879752944033  0.00652777768070979  0.9998710038244032  1.0000
  Sb  Sb11      1.0  0.0033435874447081543  0.009861110981687128  0.999648011195959  1.0000
  Sb  Sb12      1.0  0.0032862825594494878  0.003339621284328029  9.858909579943596e-05  1.0000
  Pt  Pt7       1.0  6.14063213415126e-05  0.008371984511780119  0.9999085855085639  1.0000
  Pt  Pt8       1.0  1.0254465200021285e-05  0.0018055555717335534  0.9996851763909728  1.0000
  Pt  Pt9       1.0  0.009824810132258643  0.005447814619091239  0.00012334202748580755  1.0000
  Pt  Pt10      1.0  1.0254419213852316e-05  0.00680555552319956  0.9996851763272482  1.0000
  Pt  Pt11      1.0  0.00977852816732509  0.0004038475962235609  0.00010500134558157814  1.0000
  Pt  Pt12      1.0  0.009989746181584413  0.0035090522434405077  0.9999077101201505  1.0000
  Sb  Sb13      1.0  0.006676921176934765  0.007083333365689329  0.9994993493023644  1.0000
  Sb  Sb14      1.0  0.006676921355071321  0.000416666687900289  0.9992763562491838  1.0000
  Sb  Sb15      1.0  0.0066769212460482735  0.0037500000647119917  0.9990533636313746  1.0000
  Sb  Sb16      1.0  0.008343587439986025  0.00652777768070979  0.9992020253305114  1.0000
  Sb  Sb17      1.0  0.008343587370872516  0.009861110981687128  0.9989790327132355  1.0000
  Sb  Sb18      1.0  0.008343587509099531  0.003194444379732453  0.999425018231127  1.0000
  Pt  Pt13      1.0  0.005010254523672343  0.00847222176923828  0.9992391909662025  1.0000
  Pt  Pt14      1.0  0.005010254449048476  0.0018055555717335534  0.9990161981929848  1.0000
  Pt  Pt15      1.0  0.005010254379934968  0.005138888872710891  0.999462183580635  1.0000
  Pt  Pt16      1.0  0.005010254806850955  0.00680555552319956  0.9990161981390325  1.0000
  Pt  Pt17      1.0  0.005010254496908409  0.00013888889596676298  0.9994621836459333  1.0000
  Pt  Pt18      1.0  0.005010254414491722  0.0034722222222222225  0.9992391910284797  1.0000
  Sb  Sb19      1.0  0.006616749386907478  0.007229692477484628  0.00017208948869182024  1.0000
  Sb  Sb20      1.0  0.00667665946670577  0.0004393587819938676  0.9999487163736814  1.0000
  Sb  Sb21      1.0  0.0066769212460482735  0.0037500000647119917  0.9997223422029798  1.0000
  Sb  Sb22      1.0  0.008343587439986025  0.00652777768070979  0.9998710036187771  1.0000
  Sb  Sb23      1.0  0.008343587370872516  0.009861110981687128  0.9996480110015012  1.0000
  Sb  Sb24      1.0  0.00828628248561385  0.003339621284328029  9.858890134161663e-05  1.0000
  Pt  Pt19      1.0  0.005061406247505874  0.008371984511780119  0.9999085858807852  1.0000
  Pt  Pt20      1.0  0.005010254449048476  0.0018055555717335534  0.999685176197911  1.0000
  Pt  Pt21      1.0  0.004824809744621541  0.005447814619091239  0.00012334164409625342  1.0000
  Pt  Pt22      1.0  0.005010254806850955  0.00680555552319956  0.9996851767106377  1.0000
  Pt  Pt23      1.0  0.004778527779687987  0.0004038475962235609  0.00010500096219202403  1.0000
  Pt  Pt24      1.0  0.004989745793947311  0.0035090522434405077  0.99990771030344  1.0000
