data_image0
_chemical_formula_structural       HAl6Au3Al6Au3Al6Au3Al6Au3
_chemical_formula_sum              "H1 Al24 Au12"
_cell_length_a       8.615744373983835
_cell_length_b       8.615744590759277
_cell_length_c       101.65626525878906
_cell_angle_alpha    90.0
_cell_angle_beta     90.0
_cell_angle_gamma    120.00000083229884

_space_group_name_H-M_alt    "P 1"
_space_group_IT_number       1

loop_
  _space_group_symop_operation_xyz
  'x, y, z'

loop_
  _atom_site_type_symbol
  _atom_site_label
  _atom_site_symmetry_multiplicity
  _atom_site_fract_x
  _atom_site_fract_y
  _atom_site_fract_z
  _atom_site_occupancy
  H   H1        1.0  0.0008333333932459011  0.0008333333762610683  0.00012119782742645198  1.0000
  Al  Al1       1.0  0.0008333333932459011  0.0008333333762610683  0.9994809916349201  1.0000
  Al  Al2       1.0  0.0025000001797377035  0.004166666739240251  0.9998269971139175  1.0000
  Al  Al3       1.0  0.004166666716593806  0.0025000000649588773  0.9991349861559228  1.0000
  Al  Al4       1.0  0.0025000001797377035  0.004166666739240251  0.9993079887488376  1.0000
  Al  Al5       1.0  0.004166666716593806  0.0025000000649588773  0.9996539942278351  1.0000
  Al  Al6       1.0  0.0008333333932459011  0.0008333333762610683  0.0  1.0000
  Au  Au1       1.0  0.0008333333932459011  0.0008333333762610683  0.9997404956708763  1.0000
  Au  Au2       1.0  0.0025000001797377035  0.004166666739240251  0.9990484847128815  1.0000
  Au  Au3       1.0  0.004166666716593806  0.0025000000649588773  0.9993944901918789  1.0000
  Al  Al7       1.0  0.0008333333932459011  0.005833333207632205  0.9994809916349201  1.0000
  Al  Al8       1.0  0.0025000001797377035  0.009166666894897662  0.9998269971139175  1.0000
  Al  Al9       1.0  0.004166666716593806  0.007499999869306158  0.9991349861559228  1.0000
  Al  Al10      1.0  0.0025000001797377035  0.009166666894897662  0.9993079887488376  1.0000
  Al  Al11      1.0  0.004166666716593806  0.007499999869306158  0.9996539942278351  1.0000
  Al  Al12      1.0  0.0008333333932459011  0.005833333207632205  0.0  1.0000
  Au  Au4       1.0  0.0008333333932459011  0.005833333207632205  0.9997404956708763  1.0000
  Au  Au5       1.0  0.0025000001797377035  0.009166666894897662  0.9990484847128815  1.0000
  Au  Au6       1.0  0.004166666716593806  0.007499999869306158  0.9993944901918789  1.0000
  Al  Al13      1.0  0.005833333253449909  0.0008333333366297912  0.9994809916349201  1.0000
  Al  Al14      1.0  0.007500000039941711  0.004166666645561261  0.9998269971139175  1.0000
  Al  Al15      1.0  0.009166666826433514  0.0025000001231215937  0.9991349861559228  1.0000
  Al  Al16      1.0  0.007500000039941711  0.004166666645561261  0.9993079887488376  1.0000
  Al  Al17      1.0  0.009166666826433514  0.0025000001231215937  0.9996539942278351  1.0000
  Al  Al18      1.0  0.005833333253449909  0.0008333333366297912  0.0  1.0000
  Au  Au7       1.0  0.005833333253449909  0.0008333333366297912  0.9997404956708763  1.0000
  Au  Au8       1.0  0.007500000039941711  0.004166666645561261  0.9990484847128815  1.0000
  Au  Au9       1.0  0.009166666826433514  0.0025000001231215937  0.9993944901918789  1.0000
  Al  Al19      1.0  0.005833333253449909  0.005833333276096354  0.9994809916349201  1.0000
  Al  Al20      1.0  0.007500000039941711  0.009166666530980111  0.9998269971139175  1.0000
  Al  Al21      1.0  0.009166666826433514  0.007500000062588157  0.9991349861559228  1.0000
  Al  Al22      1.0  0.007500000039941711  0.009166666530980111  0.9993079887488376  1.0000
  Al  Al23      1.0  0.009166666826433514  0.007500000062588157  0.9996539942278351  1.0000
  Al  Al24      1.0  0.005833333253449909  0.005833333276096354  0.0  1.0000
  Au  Au10      1.0  0.005833333253449909  0.005833333276096354  0.9997404956708763  1.0000
  Au  Au11      1.0  0.007500000039941711  0.009166666530980111  0.9990484847128815  1.0000
  Au  Au12      1.0  0.009166666826433514  0.007500000062588157  0.9993944901918789  1.0000
