data_image0
_chemical_formula_structural       HV4Sb8V4Sb8
_chemical_formula_sum              "H1 V8 Sb16"
_cell_length_a       6.638558387756348
_cell_length_b       5.634460926055908
_cell_length_c       109.83135223388672
_cell_angle_alpha    90.0
_cell_angle_beta     90.0
_cell_angle_gamma    90.0

_space_group_name_H-M_alt    "P 1"
_space_group_IT_number       1

loop_
  _space_group_symop_operation_xyz
  'x, y, z'

loop_
  _atom_site_type_symbol
  _atom_site_label
  _atom_site_symmetry_multiplicity
  _atom_site_fract_x
  _atom_site_fract_y
  _atom_site_fract_z
  _atom_site_occupancy
  H   H1        1.0  0.006700783490036609  0.0049997732611741005  8.216363575108461e-07  1.0000
  V   V1        1.0  0.005784542412742477  0.0025000476234840778  0.9991196942479463  1.0000
  V   V2        1.0  0.0007845426175657047  0.0025000476234840778  0.9994219099005509  1.0000
  V   V3        1.0  0.0007845426175657047  0.0075000474978633375  0.9994219099005509  1.0000
  V   V4        1.0  0.005784542412742477  0.0075000474978633375  0.9991196942479463  1.0000
  Sb  Sb1       1.0  0.007353627507584004  4.7600002220811997e-08  0.9993270695120422  1.0000
  Sb  Sb2       1.0  0.009215457183222663  4.7600002220811997e-08  0.9990248533167452  1.0000
  Sb  Sb3       1.0  0.009215457183222663  0.005000047643318932  0.9992145346364552  1.0000
  Sb  Sb4       1.0  0.007353627507584004  0.005000047643318932  0.9989123187125043  1.0000
  Sb  Sb5       1.0  0.002353627782552173  0.005000047643318932  0.9990248533167452  1.0000
  Sb  Sb6       1.0  0.00421545731790095  0.005000047643318932  0.9993270695120422  1.0000
  Sb  Sb7       1.0  0.00421545731790095  4.7600002220811997e-08  0.9989123187125043  1.0000
  Sb  Sb8       1.0  0.002353627782552173  4.7600002220811997e-08  0.9992145346364552  1.0000
  V   V5        1.0  0.005784542412742477  0.0025000476234840778  0.999724126095848  1.0000
  V   V6        1.0  0.0007845450024937033  0.0024999618377412056  0.0  1.0000
  V   V7        1.0  0.000784545984522879  0.007500132787734863  1.3024618613117771e-08  1.0000
  V   V8        1.0  0.005784542412742477  0.0075000474978633375  0.999724126095848  1.0000
  Sb  Sb9       1.0  0.00729274225984132  0.009999952475690192  0.9999574507417607  1.0000
  Sb  Sb10      1.0  0.009215457183222663  4.7600002220811997e-08  0.9996292857073392  1.0000
  Sb  Sb11      1.0  0.009125245177332158  0.004999397060112873  0.9998198396764962  1.0000
  Sb  Sb12      1.0  0.007353627507584004  0.005000047643318932  0.9995167508317522  1.0000
  Sb  Sb13      1.0  0.002353627782552173  0.005000047643318932  0.9996292857073392  1.0000
  Sb  Sb14      1.0  0.004276322083320823  0.005000149792816225  0.9999574512844531  1.0000
  Sb  Sb15      1.0  0.00421545731790095  4.7600002220811997e-08  0.9995167508317522  1.0000
  Sb  Sb16      1.0  0.002443848065545732  6.987999956823904e-07  0.9998198375057264  1.0000
