data_image0
_chemical_formula_structural       HSb8V24
_chemical_formula_sum              "H1 Sb8 V24"
_cell_length_a       7.000801086425781
_cell_length_b       8.574195338339289
_cell_length_c       102.46138000488281
_cell_angle_alpha    95.05115231471208
_cell_angle_beta     90.0
_cell_angle_gamma    90.0

_space_group_name_H-M_alt    "P 1"
_space_group_IT_number       1

loop_
  _space_group_symop_operation_xyz
  'x, y, z'

loop_
  _atom_site_type_symbol
  _atom_site_label
  _atom_site_symmetry_multiplicity
  _atom_site_fract_x
  _atom_site_fract_y
  _atom_site_fract_z
  _atom_site_occupancy
  H   H1        1.0  0.004146123793263253  0.009430560312725414  6.808001158689599e-05  1.0000
  Sb  Sb1       1.0  9.31988498964045e-05  0.005263817316163416  0.999624151571292  1.0000
  Sb  Sb2       1.0  0.005106325626233504  0.002110101355283962  0.9998123510067146  1.0000
  Sb  Sb3       1.0  0.009906800539159379  0.00917270833054184  3.931019538191739e-05  1.0000
  Sb  Sb4       1.0  0.00509319867329794  0.008388816879992586  0.999426141757538  1.0000
  Sb  Sb5       1.0  0.0002795270327515246  0.004172691930518615  3.931128163511522e-05  1.0000
  Sb  Sb6       1.0  0.00509319867329794  0.0033888172725463333  0.9994261418040598  1.0000
  Sb  Sb7       1.0  9.31988498964045e-05  0.0002638173543283639  0.9996241516152028  1.0000
  Sb  Sb8       1.0  0.005080522961032422  0.007109366014880893  0.9998123816123687  1.0000
  V   V1        1.0  0.008843198609443128  0.007607566879992586  0.999475643992025  1.0000
  V   V2        1.0  0.0038431986945828777  0.004482567316163416  0.9996736538057792  1.0000
  V   V3        1.0  0.008872078012326055  0.0014887455843809808  0.9998747851236663  1.0000
  V   V4        1.0  0.003746353028206322  0.008335237655179113  4.263367179551311e-05  1.0000
  V   V5        1.0  0.006343198652013003  0.006045067316163417  0.999574649045941  1.0000
  V   V6        1.0  0.0013431988701836102  0.0029200673161634163  0.9997726588564815  1.0000
  V   V7        1.0  0.006106456937268487  0.009736182596602418  0.9999644154132759  1.0000
  V   V8        1.0  0.0013431988701836102  0.009170066879992587  0.9993766392321868  1.0000
  V   V9        1.0  0.002593198715867815  0.005888817403397583  0.9994261417832091  1.0000
  V   V10       1.0  0.007593198630728065  0.002763817185312167  0.9996241513012788  1.0000
  V   V11       1.0  0.0025855614143149475  0.00968460801292573  0.9998344776346384  1.0000
  V   V12       1.0  0.007400901993489329  0.006571471423343361  1.1592217543187788e-05  1.0000
  V   V13       1.0  0.002593198715867815  0.007763817228929251  0.9996241515488345  1.0000
  V   V14       1.0  0.007600963907966246  0.004684602081002437  0.9998344776345627  1.0000
  V   V15       1.0  0.0027854163327769503  0.0015715686458214696  1.1579016019414753e-05  1.0000
  V   V16       1.0  0.007593198630728065  0.0008888173052591455  0.9994261415352517  1.0000
  V   V17       1.0  0.008843198609443128  0.004170067054460918  0.9993766392771019  1.0000
  V   V18       1.0  0.0038431986945828777  0.0010450672725463332  0.9995746490892492  1.0000
  V   V19       1.0  0.008843198609443128  0.007920067577865914  0.9997726588147801  1.0000
  V   V20       1.0  0.004079895710959134  0.004736102951808777  0.9999644125431862  1.0000
  V   V21       1.0  0.0013431988701836102  0.0026075672725463335  0.9994756440385469  1.0000
  V   V22       1.0  0.006343198652013003  0.009482566705524255  0.9996736537576505  1.0000
  V   V23       1.0  0.0013143576471569044  0.006488762093446914  0.9998747840382166  1.0000
  V   V24       1.0  0.006439898250507568  0.0033351968295893828  4.263748672539306e-05  1.0000
