data_image0
_chemical_formula_structural       COSi6Ni6Si6Ni6Si6Ni6Si6Ni6
_chemical_formula_sum              "C1 O1 Si24 Ni24"
_cell_length_a       8.972914808949543
_cell_length_b       5.643429477190817
_cell_length_c       109.21186828613281
_cell_angle_alpha    68.83595206820144
_cell_angle_beta     86.88024788255721
_cell_angle_gamma    68.53197812711501

_space_group_name_H-M_alt    "P 1"
_space_group_IT_number       1

loop_
  _space_group_symop_operation_xyz
  'x, y, z'

loop_
  _atom_site_type_symbol
  _atom_site_label
  _atom_site_symmetry_multiplicity
  _atom_site_fract_x
  _atom_site_fract_y
  _atom_site_fract_z
  _atom_site_occupancy
  C   C1        1.0  0.0014454459236749784  0.008698465518370602  1.192173326304231e-05  1.0000
  O   O1        1.0  0.0014454459236749784  0.008698465518370602  0.00012180012383553261  1.0000
  Si  Si1       1.0  0.0019474662712062074  0.002268978512786743  0.9990136513218094  1.0000
  Si  Si2       1.0  0.0036141330026104933  0.005602312184189381  0.9988141826907998  1.0000
  Si  Si3       1.0  0.00028079961780614677  0.008935645283670263  0.9992131202607659  1.0000
  Si  Si4       1.0  0.0039266552985927124  0.0043522227661291326  0.9990759826994284  1.0000
  Si  Si5       1.0  0.0005933218304898937  0.007685556246891185  0.9988765140019173  1.0000
  Si  Si6       1.0  0.002259988588013045  0.0010188889994062018  0.9992754516050087  1.0000
  Ni  Ni1       1.0  0.00278184726356086  0.00893145424103744  0.9989137914648575  1.0000
  Ni  Ni2       1.0  0.004448514208152791  0.002264787088872749  0.9987143228045976  1.0000
  Ni  Ni3       1.0  0.0011151807816992083  0.005598120378994216  0.9991132603711933  1.0000
  Ni  Ni4       1.0  0.0030922738022113286  0.007689747289524008  0.9991758425976011  1.0000
  Ni  Ni5       1.0  0.004758940642680168  0.0010230806139607815  0.9989763736560299  1.0000
  Ni  Ni6       1.0  0.001425607361646129  0.0043564141900431265  0.9987769049559039  1.0000
  Si  Si7       1.0  0.001937798241168442  0.00225265948802272  0.9996164366025603  1.0000
  Si  Si8       1.0  0.0036141330026104933  0.005602312184189381  0.9994125894973069  1.0000
  Si  Si9       1.0  0.0002410591316318531  0.00898912073048055  0.99980886048914  1.0000
  Si  Si10      1.0  0.004002079350043217  0.004071156394191388  0.9996997396947432  1.0000
  Si  Si11      1.0  0.0005933218304898937  0.007685556246891185  0.9994749205355391  1.0000
  Si  Si12      1.0  0.0022768682343626188  0.001010879711805607  0.9998734785514644  1.0000
  Ni  Ni7       1.0  0.00278184726356086  0.00893145424103744  0.99951219854425  1.0000
  Ni  Ni8       1.0  0.004448514208152791  0.002264787088872749  0.9993127296111048  1.0000
  Ni  Ni9       1.0  0.0011426578535553799  0.005595398793994844  0.9997132163029132  1.0000
  Ni  Ni10      1.0  0.003048888997720591  0.007820146975167749  0.9997663228568945  1.0000
  Ni  Ni11      1.0  0.004758940642680168  0.0010230806139607815  0.9995747807354224  1.0000
  Ni  Ni12      1.0  0.001425607361646129  0.0043564141900431265  0.9993753114895257  1.0000
  Si  Si13      1.0  0.006947466304469151  0.002268978512786743  0.9990136516654963  1.0000
  Si  Si14      1.0  0.008614132620086642  0.005602312184189381  0.9988141827634605  1.0000
  Si  Si15      1.0  0.005280799858962488  0.008935645283670263  0.9992131206035232  1.0000
  Si  Si16      1.0  0.008926655331855656  0.0043522227661291326  0.9990759830431153  1.0000
  Si  Si17      1.0  0.00559332165585944  0.007685556246891185  0.998876513800763  1.0000
  Si  Si18      1.0  0.007259988205489194  0.0010188889994062018  0.9992754519505548  1.0000
  Ni  Ni13      1.0  0.007781847296823803  0.00893145424103744  0.9989137918085442  1.0000
  Ni  Ni14      1.0  0.009448513825628939  0.002264787088872749  0.9987143228772583  1.0000
  Ni  Ni15      1.0  0.006115181022855549  0.005598120378994216  0.9991132607139506  1.0000
  Ni  Ni16      1.0  0.008092274251261068  0.007689747289524008  0.9991758429394287  1.0000
  Ni  Ni17      1.0  0.009758940675943111  0.0010230806139607815  0.9989763739997167  1.0000
  Ni  Ni18      1.0  0.0064256069791222776  0.0043564141900431265  0.9987769050285645  1.0000
  Si  Si19      1.0  0.00693779785864459  0.00225265948802272  0.9996164364023356  1.0000
  Si  Si20      1.0  0.008614132620086642  0.005602312184189381  0.9994125892970822  1.0000
  Si  Si21      1.0  0.005241058957001398  0.00898912073048055  0.9998088602879857  1.0000
  Si  Si22      1.0  0.00900207938330616  0.004071156394191388  0.9996997394926593  1.0000
  Si  Si23      1.0  0.00559332165585944  0.007685556246891185  0.9994749208801555  1.0000
  Si  Si24      1.0  0.007276868475518961  0.001010879711805607  0.9998734783484509  1.0000
  Ni  Ni19      1.0  0.007781847296823803  0.00893145424103744  0.9995121983421661  1.0000
  Ni  Ni20      1.0  0.009448513825628939  0.002264787088872749  0.99931272941088  1.0000
  Ni  Ni21      1.0  0.006142657886818324  0.005595398793994844  0.9997132166466  1.0000
  Ni  Ni22      1.0  0.008048889030983533  0.007820146975167749  0.9997663232005813  1.0000
  Ni  Ni23      1.0  0.009758940675943111  0.0010230806139607815  0.9995747805333385  1.0000
  Ni  Ni24      1.0  0.0064256069791222776  0.0043564141900431265  0.9993753118350717  1.0000
