data_image0
_chemical_formula_structural       CONi6Si12
_chemical_formula_sum              "C1 O1 Ni6 Si12"
_cell_length_a       5.476702690124512
_cell_length_b       6.7075638238850335
_cell_length_c       99.49295043945312
_cell_angle_alpha    94.34775302023513
_cell_angle_beta     90.0
_cell_angle_gamma    114.09484143657569

_space_group_name_H-M_alt    "P 1"
_space_group_IT_number       1

loop_
  _space_group_symop_operation_xyz
  'x, y, z'

loop_
  _atom_site_type_symbol
  _atom_site_label
  _atom_site_symmetry_multiplicity
  _atom_site_fract_x
  _atom_site_fract_y
  _atom_site_fract_z
  _atom_site_occupancy
  C   C1        1.0  0.00024060650605448253  0.000273057196306719  4.699845043307231e-05  1.0000
  O   O1        1.0  0.00024060650605448253  0.000273057196306719  0.00016761025524629608  1.0000
  Ni  Ni1       1.0  0.002047729634051858  0.003886795061503271  0.9997718906541526  1.0000
  Ni  Ni2       1.0  0.00788439368831714  0.0055602760014437985  0.9995403547130612  1.0000
  Ni  Ni3       1.0  0.006433273649103285  0.0026581998528499196  1.3585808736717456e-05  1.0000
  Ni  Ni4       1.0  0.004967726707872402  0.009726942383208488  0.999663868277613  1.0000
  Ni  Ni5       1.0  0.0008010601860252967  0.0013936094670530497  0.9994168411477294  1.0000
  Ni  Ni6       1.0  0.009122701964322823  0.008037352373238027  0.9999045277126056  1.0000
  Si  Si1       1.0  0.008926060080753957  0.002643609412107668  0.9996021114994559  1.0000
  Si  Si2       1.0  0.004759393442216834  0.0043102759037631205  0.9993550843605549  1.0000
  Si  Si3       1.0  0.0030604730238303637  0.0010373098082721703  0.9998561859653377  1.0000
  Si  Si4       1.0  0.003926060196389108  0.002643609412107668  0.9996021114994559  1.0000
  Si  Si5       1.0  0.009759393326581682  0.0043102759037631205  0.9993550843605549  1.0000
  Si  Si6       1.0  0.008185057719161946  0.0010373349915719157  0.9998562082601589  1.0000
  Si  Si7       1.0  0.0018427268839347549  0.008476942896032047  0.9994785979282268  1.0000
  Si  Si8       1.0  0.0004863474912215008  0.005253117889090857  0.9999665168265963  1.0000
  Si  Si9       1.0  0.006009393539897513  0.0068102760991244765  0.9997256250655677  1.0000
  Si  Si10      1.0  0.006842727108402992  0.008476942896032047  0.9994785979282268  1.0000
  Si  Si11      1.0  0.004975541352853613  0.005254017161830861  0.9999664926666576  1.0000
  Si  Si12      1.0  0.00100939348548097  0.0068102760991244765  0.9997256250655677  1.0000
