data_image0
_chemical_formula_structural       HAu4Cu4Zn8Au4Cu4Zn8Au4Cu4Zn8Au4Cu4Zn8
_chemical_formula_sum              "H1 Au16 Cu16 Zn32"
_cell_length_a       8.838199615478516
_cell_length_b       8.838199615478516
_cell_length_c       107.49730682373047
_cell_angle_alpha    90.0
_cell_angle_beta     90.0
_cell_angle_gamma    90.0

_space_group_name_H-M_alt    "P 1"
_space_group_IT_number       1

loop_
  _space_group_symop_operation_xyz
  'x, y, z'

loop_
  _atom_site_type_symbol
  _atom_site_label
  _atom_site_symmetry_multiplicity
  _atom_site_fract_x
  _atom_site_fract_y
  _atom_site_fract_z
  _atom_site_occupancy
  H   H1        1.0  0.0012500011886265416  0.005000000961017204  0.0001089938434211715  1.0000
  Au  Au1       1.0  0.0  0.003749998297144955  0.9991297221058267  1.0000
  Au  Au2       1.0  0.0025000000590098283  0.0012499982381351266  0.9994204059931424  1.0000
  Au  Au3       1.0  0.0  0.003749998297144955  0.9997110904349339  1.0000
  Au  Au4       1.0  0.0025000019557543094  0.0012500001348796075  0.0  1.0000
  Cu  Cu1       1.0  0.0  0.003749998297144955  0.9994204059931424  1.0000
  Cu  Cu2       1.0  0.0025000000590098283  0.0012499982381351266  0.9991297221058267  1.0000
  Cu  Cu3       1.0  3.000000063192967e-10  0.003750002090633917  0.999988763549878  1.0000
  Cu  Cu4       1.0  0.0025000000590098283  0.0012499982381351266  0.9997110904349339  1.0000
  Zn  Zn1       1.0  0.0  0.0012499982381351266  0.9992750640494845  1.0000
  Zn  Zn2       1.0  0.0025000000590098283  0.003749998297144955  0.9992750640494845  1.0000
  Zn  Zn3       1.0  0.0025000000590098283  0.003749998297144955  0.9989843801621688  1.0000
  Zn  Zn4       1.0  0.0  0.0012499982381351266  0.9989843801621688  1.0000
  Zn  Zn5       1.0  0.010000000236039313  0.0012499999241302208  0.9998632718363888  1.0000
  Zn  Zn6       1.0  0.0024999987945135077  0.003749999140142502  0.9998632718363888  1.0000
  Zn  Zn7       1.0  0.0025000000590098283  0.003749998297144955  0.999565748491276  1.0000
  Zn  Zn8       1.0  0.0  0.0012499982381351266  0.999565748491276  1.0000
  Au  Au5       1.0  0.0  0.008749998415164611  0.9991297221058267  1.0000
  Au  Au6       1.0  0.0025000000590098283  0.00624999856690417  0.9994204059931424  1.0000
  Au  Au7       1.0  0.0  0.008749998415164611  0.9997110904349339  1.0000
  Au  Au8       1.0  0.0025000019557543094  0.006250000252899264  0.0  1.0000
  Cu  Cu5       1.0  0.0  0.008749998415164611  0.9994204059931424  1.0000
  Cu  Cu6       1.0  0.0025000000590098283  0.00624999856690417  0.9991297221058267  1.0000
  Cu  Cu7       1.0  3.000000063192967e-10  0.008750002630152347  0.999988763549878  1.0000
  Cu  Cu8       1.0  0.0025000000590098283  0.00624999856690417  0.9997110904349339  1.0000
  Zn  Zn9       1.0  0.0  0.00624999856690417  0.9992750640494845  1.0000
  Zn  Zn10      1.0  0.0025000000590098283  0.008749998415164611  0.9992750640494845  1.0000
  Zn  Zn11      1.0  0.0025000000590098283  0.008749998415164611  0.9989843801621688  1.0000
  Zn  Zn12      1.0  0.0  0.00624999856690417  0.9989843801621688  1.0000
  Zn  Zn13      1.0  0.010000000236039313  0.006250000252899264  0.9998632718363888  1.0000
  Zn  Zn14      1.0  0.0024999987945135077  0.00874999925816216  0.9998632718363888  1.0000
  Zn  Zn15      1.0  0.0025000000590098283  0.008749998415164611  0.999565748491276  1.0000
  Zn  Zn16      1.0  0.0  0.00624999856690417  0.999565748491276  1.0000
  Au  Au9       1.0  0.005000000118019657  0.003749998297144955  0.9991297221058267  1.0000
  Au  Au10      1.0  0.007499999966280099  0.0012499982381351266  0.9994204059931424  1.0000
  Au  Au11      1.0  0.005000000118019657  0.003749998297144955  0.9997110904349339  1.0000
  Au  Au12      1.0  0.00750000249527274  0.0012500001348796075  0.0  1.0000
  Cu  Cu9       1.0  0.005000000118019657  0.003749998297144955  0.9994204059931424  1.0000
  Cu  Cu10      1.0  0.007499999966280099  0.0012499982381351266  0.9991297221058267  1.0000
  Cu  Cu11      1.0  0.00500000053951843  0.003750002090633917  0.999988763549878  1.0000
  Cu  Cu12      1.0  0.007499999966280099  0.0012499982381351266  0.9997110904349339  1.0000
  Zn  Zn17      1.0  0.005000000118019657  0.0012499982381351266  0.9992750640494845  1.0000
  Zn  Zn18      1.0  0.007499999966280099  0.003749998297144955  0.9992750640494845  1.0000
  Zn  Zn19      1.0  0.007499999966280099  0.003749998297144955  0.9989843801621688  1.0000
  Zn  Zn20      1.0  0.005000000118019657  0.0012499982381351266  0.9989843801621688  1.0000
  Zn  Zn21      1.0  0.005000000118019657  0.0012499999241302208  0.9998632718363888  1.0000
  Zn  Zn22      1.0  0.007499999123282551  0.003749999140142502  0.9998632718363888  1.0000
  Zn  Zn23      1.0  0.007499999966280099  0.003749998297144955  0.999565748491276  1.0000
  Zn  Zn24      1.0  0.005000000118019657  0.0012499982381351266  0.999565748491276  1.0000
  Au  Au13      1.0  0.005000000118019657  0.008749998415164611  0.9991297221058267  1.0000
  Au  Au14      1.0  0.007499999966280099  0.00624999856690417  0.9994204059931424  1.0000
  Au  Au15      1.0  0.005000000118019657  0.008749998415164611  0.9997110904349339  1.0000
  Au  Au16      1.0  0.00750000249527274  0.006250000252899264  0.0  1.0000
  Cu  Cu13      1.0  0.005000000118019657  0.008749998415164611  0.9994204059931424  1.0000
  Cu  Cu14      1.0  0.007499999966280099  0.00624999856690417  0.9991297221058267  1.0000
  Cu  Cu15      1.0  0.00500000053951843  0.008750002630152347  0.999988763549878  1.0000
  Cu  Cu16      1.0  0.007499999966280099  0.00624999856690417  0.9997110904349339  1.0000
  Zn  Zn25      1.0  0.005000000118019657  0.00624999856690417  0.9992750640494845  1.0000
  Zn  Zn26      1.0  0.007499999966280099  0.008749998415164611  0.9992750640494845  1.0000
  Zn  Zn27      1.0  0.007499999966280099  0.008749998415164611  0.9989843801621688  1.0000
  Zn  Zn28      1.0  0.005000000118019657  0.00624999856690417  0.9989843801621688  1.0000
  Zn  Zn29      1.0  0.005000000118019657  0.006250000252899264  0.9998632718363888  1.0000
  Zn  Zn30      1.0  0.007499999123282551  0.00874999925816216  0.9998632718363888  1.0000
  Zn  Zn31      1.0  0.007499999966280099  0.008749998415164611  0.999565748491276  1.0000
  Zn  Zn32      1.0  0.005000000118019657  0.00624999856690417  0.999565748491276  1.0000
