data_image0
_chemical_formula_structural       HAl6Ir12Zn6
_chemical_formula_sum              "H1 Al6 Ir12 Zn6"
_cell_length_a       7.450183705363604
_cell_length_b       6.083049774169922
_cell_length_c       102.75822448730469
_cell_angle_alpha    90.0
_cell_angle_beta     85.65224673249763
_cell_angle_gamma    114.09484361131602

_space_group_name_H-M_alt    "P 1"
_space_group_IT_number       1

loop_
  _space_group_symop_operation_xyz
  'x, y, z'

loop_
  _atom_site_type_symbol
  _atom_site_label
  _atom_site_symmetry_multiplicity
  _atom_site_fract_x
  _atom_site_fract_y
  _atom_site_fract_z
  _atom_site_occupancy
  H   H1        1.0  0.004907849005468784  0.002324564235545995  9.238855912511831e-05  1.0000
  Al  Al1       1.0  0.004755980609320058  0.0022489758358011187  0.9995279426940282  1.0000
  Al  Al2       1.0  0.0065190506662254925  0.008130725408874597  0.9997899429520921  1.0000
  Al  Al3       1.0  0.0030893137301219163  0.006415642292858699  0.999262284952872  1.0000
  Al  Al4       1.0  0.0005893136861498872  0.005165642270872684  0.9996607713374815  1.0000
  Al  Al5       1.0  0.0022658529729858365  0.001003147066334661  0.9999212094938263  1.0000
  Al  Al6       1.0  0.008922646982839863  0.009332308919217672  0.9993951137635723  1.0000
  Ir  Ir1       1.0  0.006005980631306073  0.0003739759271722867  0.9993286992116998  1.0000
  Ir  Ir2       1.0  0.007672646960853848  0.0062073088163639096  0.9995943572459007  1.0000
  Ir  Ir3       1.0  0.009410687039388596  0.0020816699155074463  0.9998588674719474  1.0000
  Ir  Ir4       1.0  0.005121453031435217  0.009834357854158694  0.999971947478992  1.0000
  Ir  Ir5       1.0  0.0018393137081359019  0.008290642220625187  0.9994615281451767  1.0000
  Ir  Ir6       1.0  0.0035200458653769236  0.00415768876560242  0.9997256538194206  1.0000
  Ir  Ir7       1.0  0.0051187014817026056  0.0050269986996220395  0.999971865734599  1.0000
  Ir  Ir8       1.0  0.0018393137081359019  0.003290642343106195  0.9994615281451767  1.0000
  Ir  Ir9       1.0  0.0035196605604702995  0.009105582722212466  0.9997256037329286  1.0000
  Ir  Ir10      1.0  0.006005980631306073  0.00537397580469128  0.9993286992116998  1.0000
  Ir  Ir11      1.0  0.007672646960853848  0.0012073090919461744  0.9995943572459007  1.0000
  Ir  Ir12      1.0  0.009409407453336354  0.007070408140903253  0.9998587985188085  1.0000
  Zn  Zn1       1.0  0.004755980609320058  0.007248975732457769  0.9995279426940282  1.0000
  Zn  Zn2       1.0  0.006511046657594592  0.003124533557072864  0.9997934573688838  1.0000
  Zn  Zn3       1.0  0.0030893137301219163  0.0014156423962020479  0.999262284952872  1.0000
  Zn  Zn4       1.0  0.0005893136861498872  0.00016564237421603348  0.9996607713374815  1.0000
  Zn  Zn5       1.0  0.002029547150186853  0.005887273174335573  0.9999529155642721  1.0000
  Zn  Zn6       1.0  0.008922646982839863  0.0043323089747168775  0.9993951137635723  1.0000
