data_image0
_chemical_formula_structural       COAu4Cu8Pd4Au4Cu8Pd4Au4Cu8Pd4Au4Cu8Pd4
_chemical_formula_sum              "C1 O1 Au16 Cu32 Pd16"
_cell_length_a       8.734162330627441
_cell_length_b       8.734162330627441
_cell_length_c       107.055908203125
_cell_angle_alpha    90.0
_cell_angle_beta     90.0
_cell_angle_gamma    90.0

_space_group_name_H-M_alt    "P 1"
_space_group_IT_number       1

loop_
  _space_group_symop_operation_xyz
  'x, y, z'

loop_
  _atom_site_type_symbol
  _atom_site_label
  _atom_site_symmetry_multiplicity
  _atom_site_fract_x
  _atom_site_fract_y
  _atom_site_fract_z
  _atom_site_occupancy
  C   C1        1.0  0.0041666665813627725  1.1499999555042413e-09  0.00016035631902777873  1.0000
  O   O1        1.0  0.0041666665813627725  1.1499999555042413e-09  0.0002724469538695465  1.0000
  Au  Au1       1.0  1.9999999889357454e-10  0.0024999999488176635  0.9994228796032535  1.0000
  Au  Au2       1.0  0.0025000001620773993  4.9999999723393635e-11  0.9991344329842962  1.0000
  Au  Au3       1.0  0.009999999795270654  0.0024999999488176635  0.0  1.0000
  Au  Au4       1.0  0.0025000001620773993  4.9999999723393635e-11  0.9997113262222107  1.0000
  Cu  Cu1       1.0  1.9999999889357454e-10  4.9999999723393635e-11  0.9992786562937749  1.0000
  Cu  Cu2       1.0  1.9999999889357454e-10  4.9999999723393635e-11  0.9989902096748176  1.0000
  Cu  Cu3       1.0  0.0025000001620773993  0.0024999999488176635  0.9989902096748176  1.0000
  Cu  Cu4       1.0  0.0025000001620773993  0.0024999999488176635  0.9992786562937749  1.0000
  Cu  Cu5       1.0  1.9999999889357454e-10  0.009999999795270654  0.9998584332796562  1.0000
  Cu  Cu6       1.0  1.9999999889357454e-10  4.9999999723393635e-11  0.999567103191113  1.0000
  Cu  Cu7       1.0  0.0025000001620773993  0.0024999999488176635  0.999567103191113  1.0000
  Cu  Cu8       1.0  0.0025000001620773993  0.00250000058859687  0.9998584332796562  1.0000
  Pd  Pd1       1.0  0.0025000001620773993  4.9999999723393635e-11  0.9994228796032535  1.0000
  Pd  Pd2       1.0  1.9999999889357454e-10  0.0024999999488176635  0.9991344329842962  1.0000
  Pd  Pd3       1.0  0.0024999999488176635  3.44999996820289e-09  0.9999957001282851  1.0000
  Pd  Pd4       1.0  1.9999999889357454e-10  0.0024999999488176635  0.9997113262222107  1.0000
  Au  Au5       1.0  1.9999999889357454e-10  0.00749999941993352  0.9994228796032535  1.0000
  Au  Au6       1.0  0.0025000001620773993  0.004999999897635327  0.9991344329842962  1.0000
  Au  Au7       1.0  0.009999999795270654  0.00749999941993352  0.0  1.0000
  Au  Au8       1.0  0.0025000001620773993  0.004999999897635327  0.9997113262222107  1.0000
  Cu  Cu9       1.0  1.9999999889357454e-10  0.004999999897635327  0.9992786562937749  1.0000
  Cu  Cu10      1.0  1.9999999889357454e-10  0.004999999897635327  0.9989902096748176  1.0000
  Cu  Cu11      1.0  0.0025000001620773993  0.00749999941993352  0.9989902096748176  1.0000
  Cu  Cu12      1.0  0.0025000001620773993  0.00749999941993352  0.9992786562937749  1.0000
  Cu  Cu13      1.0  1.9999999889357454e-10  0.004999999897635327  0.9998584332796562  1.0000
  Cu  Cu14      1.0  1.9999999889357454e-10  0.004999999897635327  0.999567103191113  1.0000
  Cu  Cu15      1.0  0.0025000001620773993  0.00749999941993352  0.999567103191113  1.0000
  Cu  Cu16      1.0  0.0025000001620773993  0.007500000272972462  0.9998584332796562  1.0000
  Pd  Pd5       1.0  0.0025000001620773993  0.004999999897635327  0.9994228796032535  1.0000
  Pd  Pd6       1.0  1.9999999889357454e-10  0.00749999941993352  0.9991344329842962  1.0000
  Pd  Pd7       1.0  0.0024999999488176635  0.005000003309791097  0.9999957001282851  1.0000
  Pd  Pd8       1.0  1.9999999889357454e-10  0.00749999941993352  0.9997113262222107  1.0000
  Au  Au9       1.0  0.004999999897635327  0.0024999999488176635  0.9994228796032535  1.0000
  Au  Au10      1.0  0.007500000272972462  4.9999999723393635e-11  0.9991344329842962  1.0000
  Au  Au11      1.0  0.004999999471115856  0.0024999999488176635  0.0  1.0000
  Au  Au12      1.0  0.007500000272972462  4.9999999723393635e-11  0.9997113262222107  1.0000
  Cu  Cu17      1.0  0.004999999897635327  4.9999999723393635e-11  0.9992786562937749  1.0000
  Cu  Cu18      1.0  0.004999999897635327  4.9999999723393635e-11  0.9989902096748176  1.0000
  Cu  Cu19      1.0  0.007500000272972462  0.0024999999488176635  0.9989902096748176  1.0000
  Cu  Cu20      1.0  0.007500000272972462  0.0024999999488176635  0.9992786562937749  1.0000
  Cu  Cu21      1.0  0.004999999897635327  0.009999999795270654  0.9998584332796562  1.0000
  Cu  Cu22      1.0  0.004999999897635327  4.9999999723393635e-11  0.999567103191113  1.0000
  Cu  Cu23      1.0  0.007500000272972462  0.0024999999488176635  0.999567103191113  1.0000
  Cu  Cu24      1.0  0.007500000272972462  0.00250000058859687  0.9998584332796562  1.0000
  Pd  Pd9       1.0  0.007500000272972462  4.9999999723393635e-11  0.9994228796032535  1.0000
  Pd  Pd10      1.0  0.004999999897635327  0.0024999999488176635  0.9991344329842962  1.0000
  Pd  Pd11      1.0  0.00749999941993352  3.44999996820289e-09  0.9999957001282851  1.0000
  Pd  Pd12      1.0  0.004999999897635327  0.0024999999488176635  0.9997113262222107  1.0000
  Au  Au13      1.0  0.004999999897635327  0.00749999941993352  0.9994228796032535  1.0000
  Au  Au14      1.0  0.007500000272972462  0.004999999897635327  0.9991344329842962  1.0000
  Au  Au15      1.0  0.004999999471115856  0.00749999941993352  0.0  1.0000
  Au  Au16      1.0  0.007500000272972462  0.004999999897635327  0.9997113262222107  1.0000
  Cu  Cu25      1.0  0.004999999897635327  0.004999999897635327  0.9992786562937749  1.0000
  Cu  Cu26      1.0  0.004999999897635327  0.004999999897635327  0.9989902096748176  1.0000
  Cu  Cu27      1.0  0.007500000272972462  0.00749999941993352  0.9989902096748176  1.0000
  Cu  Cu28      1.0  0.007500000272972462  0.00749999941993352  0.9992786562937749  1.0000
  Cu  Cu29      1.0  0.004999999897635327  0.004999999897635327  0.9998584332796562  1.0000
  Cu  Cu30      1.0  0.004999999897635327  0.004999999897635327  0.999567103191113  1.0000
  Cu  Cu31      1.0  0.007500000272972462  0.00749999941993352  0.999567103191113  1.0000
  Cu  Cu32      1.0  0.007500000272972462  0.007500000272972462  0.9998584332796562  1.0000
  Pd  Pd13      1.0  0.007500000272972462  0.004999999897635327  0.9994228796032535  1.0000
  Pd  Pd14      1.0  0.004999999897635327  0.00749999941993352  0.9991344329842962  1.0000
  Pd  Pd15      1.0  0.00749999941993352  0.005000003309791097  0.9999957001282851  1.0000
  Pd  Pd16      1.0  0.004999999897635327  0.00749999941993352  0.9997113262222107  1.0000
