data_image0
_chemical_formula_structural       HTi2As2Ti2As2Ti2As2Ti2As2Ti2As2Ti2As2Ti2As2Ti2As2
_chemical_formula_sum              "H1 Ti16 As16"
_cell_length_a       7.380309104919434
_cell_length_b       7.380309199743317
_cell_length_c       106.83381652832031
_cell_angle_alpha    90.0
_cell_angle_beta     90.0
_cell_angle_gamma    119.9999995749841

_space_group_name_H-M_alt    "P 1"
_space_group_IT_number       1

loop_
  _space_group_symop_operation_xyz
  'x, y, z'

loop_
  _atom_site_type_symbol
  _atom_site_label
  _atom_site_symmetry_multiplicity
  _atom_site_fract_x
  _atom_site_fract_y
  _atom_site_fract_z
  _atom_site_occupancy
  H   H1        1.0  0.003333335016361018  0.002499999580349807  0.00011532414448927159  1.0000
  Ti  Ti1       1.0  0.0008333333692860858  3.9999998728572135e-10  0.9991485725153472  1.0000
  Ti  Ti2       1.0  0.0008333333692860858  3.9999998728572135e-10  0.9994358867117163  1.0000
  As  As1       1.0  0.004166666739634728  0.0016666671154592343  0.9992922297530116  1.0000
  As  As2       1.0  0.002500000056416674  0.0033333336480709783  0.9990049155566424  1.0000
  Ti  Ti3       1.0  0.0008333333692860858  3.9999998728572135e-10  0.9997232006291258  1.0000
  Ti  Ti4       1.0  0.0008333350959234053  0.00999999948709421  0.0  1.0000
  As  As3       1.0  0.0041666623815432985  0.0016666679897304698  0.999872099797278  1.0000
  As  As4       1.0  0.002500000056416674  0.0033333336480709783  0.9995795436704211  1.0000
  Ti  Ti5       1.0  0.000833333319864371  0.005000000326394595  0.9991485725153472  1.0000
  Ti  Ti6       1.0  0.000833333319864371  0.005000000326394595  0.9994358867117163  1.0000
  As  As5       1.0  0.0041666664628382324  0.006666666713294466  0.9992922297530116  1.0000
  As  As6       1.0  0.0024999999981879877  0.008333333683041828  0.9990049155566424  1.0000
  Ti  Ti7       1.0  0.000833333319864371  0.005000000326394595  0.9997232006291258  1.0000
  Ti  Ti8       1.0  0.0008333351736737786  0.004999999743547105  0.0  1.0000
  As  As7       1.0  0.004166662313553768  0.006666667878989447  0.999872099797278  1.0000
  As  As8       1.0  0.0024999999981879877  0.008333333683041828  0.9995795436704211  1.0000
  Ti  Ti9       1.0  0.00583333333142903  3.9999998728572135e-10  0.9991485725153472  1.0000
  Ti  Ti10      1.0  0.00583333333142903  3.9999998728572135e-10  0.9994358867117163  1.0000
  As  As9       1.0  0.00916666689106295  0.0016666671154592343  0.9992922297530116  1.0000
  As  As10      1.0  0.0074999999554645255  0.0033333336480709783  0.9990049155566424  1.0000
  Ti  Ti11      1.0  0.00583333333142903  3.9999998728572135e-10  0.9997232006291258  1.0000
  Ti  Ti12      1.0  0.005833334994971256  0.00999999948709421  0.0  1.0000
  As  As11      1.0  0.00916666228059115  0.0016666679897304698  0.999872099797278  1.0000
  As  As12      1.0  0.0074999999554645255  0.0033333336480709783  0.9995795436704211  1.0000
  Ti  Ti13      1.0  0.005833333345102408  0.005000000326394595  0.9991485725153472  1.0000
  Ti  Ti14      1.0  0.005833333345102408  0.005000000326394595  0.9994358867117163  1.0000
  As  As13      1.0  0.009166666488076269  0.006666666713294466  0.9992922297530116  1.0000
  As  As14      1.0  0.007500000023426024  0.008333333683041828  0.9990049155566424  1.0000
  Ti  Ti15      1.0  0.005833333345102408  0.005000000326394595  0.9997232006291258  1.0000
  Ti  Ti16      1.0  0.00583333507272163  0.004999999743547105  0.0  1.0000
  As  As15      1.0  0.009166662528077085  0.006666667878989447  0.999872099797278  1.0000
  As  As16      1.0  0.007500000023426024  0.008333333683041828  0.9995795436704211  1.0000
