data_image0
_chemical_formula_structural       COSb10Pt10Sb10Pt10
_chemical_formula_sum              "C1 O1 Sb20 Pt20"
_cell_length_a       11.197415241067358
_cell_length_b       7.036472317858472
_cell_length_c       112.21883392333984
_cell_angle_alpha    62.78368204629734
_cell_angle_beta     83.47324882002263
_cell_angle_gamma    62.95640057741438

_space_group_name_H-M_alt    "P 1"
_space_group_IT_number       1

loop_
  _space_group_symop_operation_xyz
  'x, y, z'

loop_
  _atom_site_type_symbol
  _atom_site_label
  _atom_site_symmetry_multiplicity
  _atom_site_fract_x
  _atom_site_fract_y
  _atom_site_fract_z
  _atom_site_occupancy
  C   C1        1.0  0.008410018312105754  0.009941765811337697  0.9997977947791323  1.0000
  O   O1        1.0  0.008410018312105754  0.009941765811337697  0.9999047289175399  1.0000
  Sb  Sb1       1.0  0.0027500000098865684  0.0092249004896934  0.998973002137346  1.0000
  Sb  Sb2       1.0  0.0067499998400023945  0.007224900452238049  0.9990984085821737  1.0000
  Sb  Sb3       1.0  0.008749999793791848  0.0012249006742947736  0.9988475959582496  1.0000
  Sb  Sb4       1.0  0.0007500000518612009  0.005224900414782698  0.9985967836102577  1.0000
  Sb  Sb5       1.0  0.004749999963676021  0.0032249007117501247  0.9987221895134218  1.0000
  Sb  Sb6       1.0  0.005749999986260759  0.006891567224136416  0.9988057940051245  1.0000
  Sb  Sb7       1.0  0.009749999481514322  0.004891567186681066  0.9989311999226036  1.0000
  Sb  Sb8       1.0  0.0017499998212826705  0.008891567261591767  0.9986803875640948  1.0000
  Sb  Sb9       1.0  0.003749999860804261  0.0028915671492257145  0.9990566061806128  1.0000
  Sb  Sb10      1.0  0.007749999982916282  0.0008915672789817521  0.9985549813855094  1.0000
  Pt  Pt1       1.0  0.0032499999955099886  0.0010582339766382629  0.9987012888459424  1.0000
  Pt  Pt2       1.0  0.007250000061591964  0.009058233541219806  0.9988266946833764  1.0000
  Pt  Pt3       1.0  0.009250000015381416  0.0030582337632765306  0.9985758825905988  1.0000
  Pt  Pt4       1.0  0.0012500001060196386  0.007058233503764455  0.9989521009451835  1.0000
  Pt  Pt5       1.0  0.005249999850403328  0.0050582338007318815  0.9990775073813932  1.0000
  Pt  Pt6       1.0  0.004249999830642532  0.008058233856914909  0.9985758821916488  1.0000
  Pt  Pt7       1.0  0.008249999995620622  0.006058233819459557  0.9987012886326786  1.0000
  Pt  Pt8       1.0  0.00024999998607841764  5.823399971343446e-05  0.9990775075919183  1.0000
  Pt  Pt9       1.0  0.0022500000400482965  0.004058233782004207  0.9988266948944857  1.0000
  Pt  Pt10      1.0  0.006249999827298054  0.002058233911760244  0.9989521013350044  1.0000
  Sb  Sb11      1.0  0.0027630761385657346  0.009254761768342891  0.9996011803928584  1.0000
  Sb  Sb12      1.0  0.006594061973631102  0.00737437405687426  0.999713733107239  1.0000
  Sb  Sb13      1.0  0.008640395788340293  0.0013340028448355792  0.9994816127584699  1.0000
  Sb  Sb14      1.0  0.0007500000518612009  0.005224900414782698  0.9992238148420819  1.0000
  Sb  Sb15      1.0  0.004749999963676021  0.0032249007117501247  0.9993492212763926  1.0000
  Sb  Sb16      1.0  0.005749999986260759  0.006891567224136416  0.9994328252369487  1.0000
  Sb  Sb17      1.0  0.009701314805364106  0.00510930617846777  0.9995741483199867  1.0000
  Sb  Sb18      1.0  0.0017499998212826705  0.008891567261591767  0.9993074187959189  1.0000
  Sb  Sb19      1.0  0.0036799825283660753  0.003073280112882295  0.9996896798344849  1.0000
  Sb  Sb20      1.0  0.007749999982916282  0.0008915672789817521  0.9991820126173335  1.0000
  Pt  Pt11      1.0  0.0032499999955099886  0.0010582339766382629  0.9993283200777666  1.0000
  Pt  Pt12      1.0  0.007250000061591964  0.009058233541219806  0.9994537264463471  1.0000
  Pt  Pt13      1.0  0.009250000015381416  0.0030582337632765306  0.999202913822423  1.0000
  Pt  Pt14      1.0  0.0012646740724889009  0.007240996889365197  0.9995663214553498  1.0000
  Pt  Pt15      1.0  0.005138966272234653  0.005493823481512981  0.9996796601717759  1.0000
  Pt  Pt16      1.0  0.004249999830642532  0.008058233856914909  0.9992029139546196  1.0000
  Pt  Pt17      1.0  0.008249999995620622  0.006058233819459557  0.9993283198645028  1.0000
  Pt  Pt18      1.0  0.0002767182941659811  0.000681391258308453  0.9996585454236241  1.0000
  Pt  Pt19      1.0  0.0022500000400482965  0.004058233782004207  0.9994537261263099  1.0000
  Pt  Pt20      1.0  0.0060171871895061905  0.00208478290000988  0.9995805592188994  1.0000
