data_image0
_chemical_formula_structural       COGa5Pt15Ga5Pt15
_chemical_formula_sum              "C1 O1 Ga10 Pt30"
_cell_length_a       8.856054231356328
_cell_length_b       5.601060390472412
_cell_length_c       111.15921783447266
_cell_angle_alpha    90.0
_cell_angle_beta     104.96321655898208
_cell_angle_gamma    71.56505151853416

_space_group_name_H-M_alt    "P 1"
_space_group_IT_number       1

loop_
  _space_group_symop_operation_xyz
  'x, y, z'

loop_
  _atom_site_type_symbol
  _atom_site_label
  _atom_site_symmetry_multiplicity
  _atom_site_fract_x
  _atom_site_fract_y
  _atom_site_fract_z
  _atom_site_occupancy
  C   C1        1.0  0.008083100791375019  0.0007084494712915967  0.00031621000555576243  1.0000
  O   O1        1.0  0.008083100791375019  0.0007084494712915967  0.0004241629486209022  1.0000
  Ga  Ga1       1.0  0.004499999590811481  0.0025000000715733658  9.256815442413454e-05  1.0000
  Ga  Ga2       1.0  0.008499999380687646  0.0005000001766352833  0.9999691437828412  1.0000
  Ga  Ga3       1.0  0.0004999999737345207  0.004499999880111846  0.9995988709935361  1.0000
  Ga  Ga4       1.0  0.002499999926272339  0.008499999903842937  0.9998457195769422  1.0000
  Ga  Ga5       1.0  0.0064999997161485044  0.006500000008904854  0.9997222952053593  1.0000
  Pt  Pt1       1.0  0.0054999996534799925  0.00450000004023911  0.9999074316798917  1.0000
  Pt  Pt2       1.0  0.00949999990415404  0.002499999914902086  0.9997840073177876  1.0000
  Pt  Pt3       1.0  0.0014999999788032974  0.006499999877577457  3.085605384444559e-05  1.0000
  Pt  Pt4       1.0  0.0034999997585419096  0.0004999999877081515  0.9996605830976704  1.0000
  Pt  Pt5       1.0  0.007499999778817016  0.008499999312466129  0.00015427973064284847  1.0000
  Pt  Pt6       1.0  0.002499999926272339  0.0034999999038429364  0.9998457195769422  1.0000
  Pt  Pt7       1.0  0.0064999997161485044  0.001500000008904854  0.9997222952053593  1.0000
  Pt  Pt8       1.0  0.008499999380687646  0.005500000176635283  0.9999691437828412  1.0000
  Pt  Pt9       1.0  0.0004999999737345207  0.009499999880111845  0.9995988709935361  1.0000
  Pt  Pt10      1.0  0.004499999590811481  0.007500000071573366  9.256815442413454e-05  1.0000
  Pt  Pt11      1.0  0.0054999996534799925  0.00949999937513464  0.9999074316798917  1.0000
  Pt  Pt12      1.0  0.00949999990415404  0.007499999249797616  0.9997840073177876  1.0000
  Pt  Pt13      1.0  0.0014999999788032974  0.0014999998775774577  3.085605384444559e-05  1.0000
  Pt  Pt14      1.0  0.0034999997585419096  0.005499999987708151  0.9996605830976704  1.0000
  Pt  Pt15      1.0  0.007499999778817016  0.003499999977570598  0.00015427973064284847  1.0000
  Ga  Ga6       1.0  0.004499999590811481  0.0025000000715733658  0.9994754466183985  1.0000
  Ga  Ga7       1.0  0.008499999380687646  0.0005000001766352833  0.9993520225149203  1.0000
  Ga  Ga8       1.0  0.0004999999737345207  0.004499999880111846  0.9989817499937201  1.0000
  Ga  Ga9       1.0  0.002499999926272339  0.008499999903842937  0.9992285983090214  1.0000
  Ga  Ga10      1.0  0.0064999997161485044  0.006500000008904854  0.9991051742055433  1.0000
  Pt  Pt16      1.0  0.0054999996534799925  0.00450000004023911  0.9992903104119709  1.0000
  Pt  Pt17      1.0  0.00949999990415404  0.002499999914902086  0.9991668863179717  1.0000
  Pt  Pt18      1.0  0.0014999999788032974  0.006499999877577457  0.9994137345178188  1.0000
  Pt  Pt19      1.0  0.0034999997585419096  0.0004999999877081515  0.9990434620978544  1.0000
  Pt  Pt20      1.0  0.007499999778817016  0.008499999312466129  0.9995371587308268  1.0000
  Pt  Pt21      1.0  0.002499999926272339  0.0034999999038429364  0.9992285983090214  1.0000
  Pt  Pt22      1.0  0.0064999997161485044  0.001500000008904854  0.9991051742055433  1.0000
  Pt  Pt23      1.0  0.008499999380687646  0.005500000176635283  0.9993520225149203  1.0000
  Pt  Pt24      1.0  0.0004999999737345207  0.009499999880111845  0.9989817499937201  1.0000
  Pt  Pt25      1.0  0.004499999590811481  0.007500000071573366  0.9994754466183985  1.0000
  Pt  Pt26      1.0  0.0054999996534799925  0.00949999937513464  0.9992903104119709  1.0000
  Pt  Pt27      1.0  0.00949999990415404  0.007499999249797616  0.9991668863179717  1.0000
  Pt  Pt28      1.0  0.0014999999788032974  0.0014999998775774577  0.9994137345178188  1.0000
  Pt  Pt29      1.0  0.0034999997585419096  0.005499999987708151  0.9990434620978544  1.0000
  Pt  Pt30      1.0  0.007499999778817016  0.003499999977570598  0.9995371587308268  1.0000
