data_image0
_chemical_formula_structural       HAl16Pt32
_chemical_formula_sum              "H1 Al16 Pt32"
_cell_length_a       6.877052794519683
_cell_length_b       11.516829259653267
_cell_length_c       101.68470764160156
_cell_angle_alpha    75.69187194193336
_cell_angle_beta     79.60796796364671
_cell_angle_gamma    64.42386020262396

_space_group_name_H-M_alt    "P 1"
_space_group_IT_number       1

loop_
  _space_group_symop_operation_xyz
  'x, y, z'

loop_
  _atom_site_type_symbol
  _atom_site_label
  _atom_site_symmetry_multiplicity
  _atom_site_fract_x
  _atom_site_fract_y
  _atom_site_fract_z
  _atom_site_occupancy
  H   H1        1.0  0.005696499407345891  0.0016163925750023007  0.9998127054885914  1.0000
  Al  Al1       1.0  0.004884410788740698  0.007905256739022032  0.9995163829175894  1.0000
  Al  Al2       1.0  0.002580981983120475  0.005342419931707777  0.9997590702626731  1.0000
  Al  Al3       1.0  0.007424911500199335  0.00037020589126891026  0.9992558931212565  1.0000
  Al  Al4       1.0  0.00992491157057133  0.002870205884875925  0.9989962287968005  1.0000
  Al  Al5       1.0  7.508809898283402e-05  0.007129794180880497  0.9993773495198852  1.0000
  Al  Al6       1.0  0.007467270492159992  0.004599358119712833  0.9996501910241471  1.0000
  Al  Al7       1.0  0.002575088184655141  0.009629794151655421  0.9991176846097105  1.0000
  Al  Al8       1.0  0.005075088446568166  0.002129794056673923  0.9988580199454182  1.0000
  Al  Al9       1.0  0.0069400728516289655  0.00814044554049651  0.9997712792357599  1.0000
  Al  Al10      1.0  0.004710440370849299  0.005584676817883914  0.9990185049715113  1.0000
  Al  Al11      1.0  0.009782314362086469  0.0005055751888968651  0.9995430134346248  1.0000
  Al  Al12      1.0  0.002210440285176991  0.0030846768471089903  0.9992781695886005  1.0000
  Al  Al13      1.0  0.007789559506779672  0.006915323035990705  0.9990954081455335  1.0000
  Al  Al14      1.0  0.005289559421107364  0.004415323065215781  0.9993550730557083  1.0000
  Al  Al15      1.0  0.0002895591959245312  0.00941532300676563  0.9988357439436016  1.0000
  Al  Al16      1.0  0.0029805475641496936  0.001814129441206254  0.9996255002494391  1.0000
  Pt  Pt1       1.0  0.0017511250923557225  0.004281482079253357  0.9994790766695056  1.0000
  Pt  Pt2       1.0  0.009332864256526394  0.0018002057015762464  0.9997289223612258  1.0000
  Pt  Pt3       1.0  0.004251124933223031  0.006781482415341734  0.9992194123382633  1.0000
  Pt  Pt4       1.0  0.006751125018895339  0.009281482386116658  0.9989597474280886  1.0000
  Pt  Pt5       1.0  0.0032488745894575753  0.0007185177709681272  0.9994138303006164  1.0000
  Pt  Pt6       1.0  0.0006730851451631299  0.008103425405728228  0.9996914392501048  1.0000
  Pt  Pt7       1.0  0.005748874613928633  0.0032185178330714145  0.9991541659748031  1.0000
  Pt  Pt8       1.0  0.008248874148868372  0.005718517803846339  0.998894501071347  1.0000
  Pt  Pt9       1.0  0.007596696638224116  0.005935910360425151  0.9993912508462319  1.0000
  Pt  Pt10      1.0  0.0051815491087500104  0.0033710639638022417  0.9996531945387439  1.0000
  Pt  Pt11      1.0  9.669687810154402e-05  0.008435910331200074  0.9991315860514102  1.0000
  Pt  Pt12      1.0  0.0025966970176120683  0.0009359104188753031  0.998871921676584  1.0000
  Pt  Pt13      1.0  0.007403302774344595  0.009064089464224392  0.9995016566437211  1.0000
  Pt  Pt14      1.0  0.004899266376471682  0.006640730794776184  0.9997543527082271  1.0000
  Pt  Pt15      1.0  0.00990330236312255  0.0015640895518996207  0.9992419916894425  1.0000
  Pt  Pt16      1.0  0.0024033026029999793  0.004064089522674544  0.9989823271877064  1.0000
  Pt  Pt17      1.0  0.009116502411842285  0.006344847354854711  0.9996375418888848  1.0000
  Pt  Pt18      1.0  0.006574294547888179  0.0038710725062920423  0.9988561258366448  1.0000
  Pt  Pt19      1.0  0.0015742948734379148  0.00887107244784189  0.9993754551149271  1.0000
  Pt  Pt20      1.0  0.004074295074149689  0.0013710724441887549  0.999115790448825  1.0000
  Pt  Pt21      1.0  0.005925704228275656  0.008628927347582577  0.999257787586923  1.0000
  Pt  Pt22      1.0  0.003415222388779633  0.006154151540156845  0.9995101609077959  1.0000
  Pt  Pt23      1.0  0.008425704918518748  0.0011289274352578055  0.9989981229122925  1.0000
  Pt  Pt24      1.0  0.0009258007192699503  0.003637465877385421  0.9997606086351971  1.0000
  Pt  Pt25      1.0  0.0031973674728565517  0.009452587901547873  0.9997025280884871  1.0000
  Pt  Pt26      1.0  0.00101180739802277  0.006933560214224953  0.9989145491509446  1.0000
  Pt  Pt27      1.0  0.006011807317278033  0.0019335599073616518  0.9994338785700944  1.0000
  Pt  Pt28      1.0  0.008511806852217774  0.004433559878136576  0.9991742136666383  1.0000
  Pt  Pt29      1.0  0.0014881923890063217  0.00556644000496312  0.9991993640742144  1.0000
  Pt  Pt30      1.0  0.008988192149128894  0.003066440034188196  0.9994590288690361  1.0000
  Pt  Pt31      1.0  0.003988192168751061  0.00806643961042459  0.9989396997641684  1.0000
  Pt  Pt32      1.0  0.0066839611893360455  0.0005098036007947631  0.9997177260821352  1.0000
