data_image0
_chemical_formula_structural       HFe21W18
_chemical_formula_sum              "H1 Fe21 W18"
_cell_length_a       4.753826141357422
_cell_length_b       4.753826224390997
_cell_length_c       18.338605880737305
_cell_angle_alpha    90.0
_cell_angle_beta     90.0
_cell_angle_gamma    119.99999942220678

_space_group_name_H-M_alt    "P 1"
_space_group_IT_number       1

loop_
  _space_group_symop_operation_xyz
  'x, y, z'

loop_
  _atom_site_type_symbol
  _atom_site_label
  _atom_site_symmetry_multiplicity
  _atom_site_fract_x
  _atom_site_fract_y
  _atom_site_fract_z
  _atom_site_occupancy
  H   H1        1.0  0.008337166206774969  0.001673396997657299  0.0006718488795451053  1.0000
  Fe  Fe1       1.0  0.006671872568077918  0.003338539318830666  0.9964761510707394  1.0000
  Fe  Fe2       1.0  0.004999999966142557  0.005010411723663535  0.9953999568018738  1.0000
  Fe  Fe3       1.0  1.5618068539609e-05  0.005010411723663535  0.9953999568018738  1.0000
  Fe  Fe4       1.0  0.005000000053561361  0.009994793957194235  0.9953999568018738  1.0000
  Fe  Fe5       1.0  0.005010411983510524  1.561814969587917e-05  0.9928572061669352  1.0000
  Fe  Fe6       1.0  0.005010411976377863  0.004999999837123402  0.9928572061669352  1.0000
  Fe  Fe7       1.0  0.009994794069890916  0.004999999837123402  0.9928572061669352  1.0000
  Fe  Fe8       1.0  0.0033385392089915725  0.006671872468173768  0.9917810110855126  1.0000
  Fe  Fe9       1.0  0.0016666666372118256  0.00834374555165913  0.9907048168166469  1.0000
  Fe  Fe10      1.0  0.006682284833645728  0.00834374555165913  0.9907048168166469  1.0000
  Fe  Fe11      1.0  0.0016666665779412062  0.0033281272060730355  0.9907048168166469  1.0000
  Fe  Fe12      1.0  0.0016770787408242735  0.003348951431588296  0.9881620661817084  1.0000
  Fe  Fe13      1.0  0.0016770786171397376  0.008333333212684  0.9881620661817084  1.0000
  Fe  Fe14      1.0  0.006661460514742686  0.008333333212684  0.9881620661817084  1.0000
  Fe  Fe15      1.0  5.206049905799823e-06  5.206049751349373e-06  0.9870858711002858  1.0000
  Fe  Fe16      1.0  0.008337166206774969  0.001673396997657299  1.4626024640782234e-08  1.0000
  Fe  Fe17      1.0  0.003341742306283445  0.0016734559273153986  0.0  1.0000
  Fe  Fe18      1.0  0.008337122438536355  0.006668850202407111  0.999999988624203  1.0000
  Fe  Fe19      1.0  0.008343745312237033  0.006682284807148896  0.997552346152162  1.0000
  Fe  Fe20      1.0  0.008343745392170364  0.001666666574671551  0.997552346152162  1.0000
  Fe  Fe21      1.0  0.003328127391646565  0.001666666574671551  0.997552346152162  1.0000
  W   W1        1.0  0.0033385392089915725  0.006671872468173768  0.9941205928310014  1.0000
  W   W2        1.0  0.006671872568077918  0.003338539318830666  0.9941365701378075  1.0000
  W   W3        1.0  5.206049905799823e-06  5.206049751349373e-06  0.9919796617521837  1.0000
  W   W4        1.0  5.206049905799823e-06  5.206049751349373e-06  0.9962775004040683  1.0000
  W   W5        1.0  5.206049905799823e-06  5.206049751349373e-06  0.993429522511129  1.0000
  W   W6        1.0  5.206049905799823e-06  5.206049751349373e-06  0.9948276400514015  1.0000
  W   W7        1.0  5.206049905799823e-06  5.206049751349373e-06  0.9894254524394961  1.0000
  W   W8        1.0  0.0033385392089915725  0.006671872468173768  0.9894414297463023  1.0000
  W   W9        1.0  0.006671872568077918  0.003338539318830666  0.9872845217669569  1.0000
  W   W10       1.0  0.006671872568077918  0.003338539318830666  0.9915823604188415  1.0000
  W   W11       1.0  0.006671872568077918  0.003338539318830666  0.9887343825259023  1.0000
  W   W12       1.0  0.006671872568077918  0.003338539318830666  0.990132500472453  1.0000
  W   W13       1.0  0.006671313564435278  0.0033381814427496143  0.9987895640141966  1.0000
  W   W14       1.0  5.9046499375587296e-06  5.595049737043152e-06  0.9988072972565166  1.0000
  W   W15       1.0  0.0033385392089915725  0.006671872468173768  0.9966748017374105  1.0000
  W   W16       1.0  0.0033385392089915725  0.006671872468173768  0.9868872204336147  1.0000
  W   W17       1.0  0.0033385392089915725  0.006671872468173768  0.9981246624963559  1.0000
  W   W18       1.0  0.0033387394811795496  0.006672521712391606  0.9995486790697609  1.0000
