data_image0
_chemical_formula_structural       COCa4Ga4Ge4Ca4Ga4Ge4Ca4Ga4Ge4Ca4Ga4Ge4
_chemical_formula_sum              "C1 O1 Ca16 Ga16 Ge16"
_cell_length_a       8.586959172870875
_cell_length_b       17.847095489501953
_cell_length_c       104.34783935546875
_cell_angle_alpha    90.0
_cell_angle_beta     119.99999889177164
_cell_angle_gamma    90.0

_space_group_name_H-M_alt    "P 1"
_space_group_IT_number       1

loop_
  _space_group_symop_operation_xyz
  'x, y, z'

loop_
  _atom_site_type_symbol
  _atom_site_label
  _atom_site_symmetry_multiplicity
  _atom_site_fract_x
  _atom_site_fract_y
  _atom_site_fract_z
  _atom_site_occupancy
  C   C1        1.0  0.0026162784325187427  0.007182598465130664  0.00030265073343686545  1.0000
  O   O1        1.0  0.0026162784325187427  0.007182598465130664  0.0004176503806568861  1.0000
  Ca  Ca1       1.0  0.0007139229606551188  0.0005494795707751124  0.9995780704892677  1.0000
  Ca  Ca2       1.0  0.0007139229606551188  0.0055494797628101175  0.9995780704892677  1.0000
  Ca  Ca3       1.0  0.0007139229606551188  0.0030494795624257643  0.9995780704892677  1.0000
  Ca  Ca4       1.0  0.0007139229606551188  0.008049479545727068  0.9995780704892677  1.0000
  Ga  Ga1       1.0  0.004047256262261933  0.002070246523451702  0.9997152232860498  1.0000
  Ga  Ga2       1.0  0.002380589548840395  0.007070246298019305  0.9994409174937392  1.0000
  Ga  Ga3       1.0  0.002380589548840395  0.009028712793434831  0.9994409174937392  1.0000
  Ga  Ga4       1.0  0.004047256262261933  0.004028712810133527  0.9997152232860498  1.0000
  Ge  Ge1       1.0  0.004047256262261933  0.00664843848689294  0.9997152232860498  1.0000
  Ge  Ge2       1.0  0.002380589548840395  0.0016484386079584864  0.9994409174937392  1.0000
  Ge  Ge3       1.0  0.002380589548840395  0.004450520621259893  0.9994409174937392  1.0000
  Ge  Ge4       1.0  0.004047256262261933  0.009450520187093794  0.9997152232860498  1.0000
  Ca  Ca5       1.0  0.000771637277830471  0.0005541643377830149  0.9999990329761951  1.0000
  Ca  Ca6       1.0  0.0007749460824830947  0.005545893300354878  0.9999996169492474  1.0000
  Ca  Ca7       1.0  0.0008590943931272776  0.0030488809141705187  1.3441071596491472e-05  1.0000
  Ca  Ca8       1.0  0.001036510155430504  0.008050397139077856  4.2648080419022816e-05  1.0000
  Ga  Ga5       1.0  0.004286076803900709  0.0016546190041194214  0.00016586050870502647  1.0000
  Ga  Ga6       1.0  0.0024930296702778097  0.006819988784086982  0.9998709271327493  1.0000
  Ga  Ga7       1.0  0.0024938554781875543  0.009279265874288154  0.9998710279430084  1.0000
  Ga  Ga8       1.0  0.004283899195782021  0.0044412369811621605  0.0001655595610816498  1.0000
  Ge  Ge5       1.0  0.0041593276881448605  0.006748699545624471  0.00014515177988898073  1.0000
  Ge  Ge6       1.0  0.0025394221910672696  0.0018761546563899952  0.9998785932287023  1.0000
  Ge  Ge7       1.0  0.002542150337792455  0.0042227675225964085  0.9998789710937539  1.0000
  Ge  Ge8       1.0  0.004160347111315216  0.009354607886294544  0.00014531082318788074  1.0000
  Ca  Ca9       1.0  0.00571392297568347  0.0005494795707751124  0.9995780702956742  1.0000
  Ca  Ca10      1.0  0.00571392297568347  0.0055494797628101175  0.9995780702956742  1.0000
  Ca  Ca11      1.0  0.00571392297568347  0.0030494795624257643  0.9995780702956742  1.0000
  Ca  Ca12      1.0  0.00571392297568347  0.008049479545727068  0.9995780702956742  1.0000
  Ga  Ga9       1.0  0.0090472559015815  0.002070246523451702  0.9997152230769975  1.0000
  Ga  Ga10      1.0  0.007380589689105008  0.007070246298019305  0.9994409175909043  1.0000
  Ga  Ga11      1.0  0.007380589689105008  0.009028712793434831  0.9994409175909043  1.0000
  Ga  Ga12      1.0  0.0090472559015815  0.004028712810133527  0.9997152230769975  1.0000
  Ge  Ge9       1.0  0.0090472559015815  0.00664843848689294  0.9997152230769975  1.0000
  Ge  Ge10      1.0  0.007380589689105008  0.0016484386079584864  0.9994409175909043  1.0000
  Ge  Ge11      1.0  0.007380589689105008  0.004450520621259893  0.9994409175909043  1.0000
  Ge  Ge12      1.0  0.0090472559015815  0.009450520187093794  0.9997152230769975  1.0000
  Ca  Ca13      1.0  0.005771637355476953  0.0005541643377830149  0.9999990330707836  1.0000
  Ca  Ca14      1.0  0.005774946097511446  0.005545893300354878  0.9999996170412596  1.0000
  Ca  Ca15      1.0  0.005859094345537498  0.0030488809141705187  1.3441161032147066e-05  1.0000
  Ca  Ca16      1.0  0.006036510045222594  0.008050397139077856  4.264816727820286e-05  1.0000
  Ga  Ga13      1.0  0.009286076443220275  0.0016546190041194214  0.0001658605852583043  1.0000
  Ga  Ga14      1.0  0.007493029810542423  0.006819988784086982  0.9998709272299143  1.0000
  Ga  Ga15      1.0  0.007493855367979644  0.009279265874288154  0.9998710280298676  1.0000
  Ga  Ga16      1.0  0.009283899336046633  0.0044412369811621605  0.00016555965824673207  1.0000
  Ge  Ge13      1.0  0.009159327327464427  0.006748699545624471  0.00014515185644225852  1.0000
  Ge  Ge14      1.0  0.007539421830386836  0.0018761546563899952  0.9998785933052556  1.0000
  Ge  Ge15      1.0  0.007542149977112021  0.0042227675225964085  0.9998789714559128  1.0000
  Ge  Ge16      1.0  0.009160347251579829  0.009354607886294544  0.00014531092035296298  1.0000
