data_image0
_chemical_formula_structural       HSi8Sb8Pt8Si8Sb8Pt8
_chemical_formula_sum              "H1 Si16 Sb16 Pt16"
_cell_length_a       6.447087287902832
_cell_length_b       13.32056153837136
_cell_length_c       108.5846176147461
_cell_angle_alpha    118.86647913773568
_cell_angle_beta     90.0
_cell_angle_gamma    90.0

_space_group_name_H-M_alt    "P 1"
_space_group_IT_number       1

loop_
  _space_group_symop_operation_xyz
  'x, y, z'

loop_
  _atom_site_type_symbol
  _atom_site_label
  _atom_site_symmetry_multiplicity
  _atom_site_fract_x
  _atom_site_fract_y
  _atom_site_fract_z
  _atom_site_occupancy
  H   H1        1.0  0.002070550228894639  0.001634813199603682  0.00020430912235013622  1.0000
  Si  Si1       1.0  0.0026570979702189015  0.0042599449648032745  0.9990141752625102  1.0000
  Si  Si2       1.0  0.002342901983555073  0.005740055277898225  0.9993979505450271  1.0000
  Si  Si3       1.0  0.007657097923992876  0.0007400549968754353  0.9989786561614207  1.0000
  Si  Si4       1.0  0.0073429019373290475  0.009259944926481984  0.9991871166176314  1.0000
  Si  Si5       1.0  0.0073429019373290475  0.005740055277898225  0.9992747740402408  1.0000
  Si  Si6       1.0  0.007657097923992876  0.0042599449648032745  0.9994832347565394  1.0000
  Si  Si7       1.0  0.002342901983555073  0.009259944926481984  0.9993102931224176  1.0000
  Si  Si8       1.0  0.0026570979702189015  0.0007400549968754353  0.999101832666207  1.0000
  Sb  Sb1       1.0  6.254449919490905e-05  0.003272964822221099  0.9991113252843788  1.0000
  Sb  Sb2       1.0  0.004937455562921314  0.006727035420480401  0.9990197698224749  1.0000
  Sb  Sb3       1.0  0.005062544344626635  0.0017270352991296508  0.9994737418733622  1.0000
  Sb  Sb4       1.0  0.009937456094520613  0.008272964783899809  0.9989730618902914  1.0000
  Sb  Sb5       1.0  0.009937456094520613  0.006727035420480401  0.9991776242928339  1.0000
  Sb  Sb6       1.0  0.005062544344626635  0.003272964822221099  0.9992691797547378  1.0000
  Sb  Sb7       1.0  0.004937455562921314  0.008272964783899809  0.9994074431442863  1.0000
  Sb  Sb8       1.0  6.254449919490905e-05  0.0017270352991296508  0.9993158874030033  1.0000
  Pt  Pt1       1.0  0.0011848249033487761  0.0039350235403083555  0.9993844436813993  1.0000
  Pt  Pt2       1.0  0.0038151751948815294  0.006064976383049064  0.9992144692356885  1.0000
  Pt  Pt3       1.0  0.006184825001579081  0.0010649764213703544  0.9992006234668854  1.0000
  Pt  Pt4       1.0  0.008815175437568165  0.008935023821331146  0.9993705979269699  1.0000
  Pt  Pt5       1.0  0.008815175437568165  0.006064976383049064  0.9994967413267928  1.0000
  Pt  Pt6       1.0  0.006184825001579081  0.0039350235403083555  0.9990744800481499  1.0000
  Pt  Pt7       1.0  0.0038151751948815294  0.008935023821331146  0.9990883258358656  1.0000
  Pt  Pt8       1.0  0.0011848249033487761  0.0010649764213703544  0.9995105873745965  1.0000
  Si  Si9       1.0  0.0026570979702189015  0.0042599449648032745  0.999606410986864  1.0000
  Si  Si10      1.0  0.0019430975637904366  0.005701417837642649  0.9999751487256922  1.0000
  Si  Si11      1.0  0.007657097923992876  0.0007400549968754353  0.9995708921602362  1.0000
  Si  Si12      1.0  0.0073429019373290475  0.009259944926481984  0.9997793526164468  1.0000
  Si  Si13      1.0  0.007245475965166138  0.005775878019431489  0.9998549320375373  1.0000
  Si  Si14      1.0  0.008160315019641994  0.004690864353753042  6.64231601210441e-05  1.0000
  Si  Si15      1.0  0.0024598801201055702  0.009072720517868388  0.9998983637712133  1.0000
  Si  Si16      1.0  0.0026570979702189015  0.0007400549968754353  0.9996940683905607  1.0000
  Sb  Sb9       1.0  6.254449919490905e-05  0.003272964822221099  0.9997035607342709  1.0000
  Sb  Sb10      1.0  0.004937455562921314  0.006727035420480401  0.9996120052723669  1.0000
  Sb  Sb11      1.0  0.006313826816375877  0.0010627493955915105  6.293981581046867e-05  1.0000
  Sb  Sb12      1.0  0.009937456094520613  0.008272964783899809  0.9995652976146452  1.0000
  Sb  Sb13      1.0  0.009937456094520613  0.006727035420480401  0.9997698597427259  1.0000
  Sb  Sb14      1.0  0.0053047282725104845  0.003328856103782309  0.9998802038299174  1.0000
  Sb  Sb15      1.0  0.005088262194129783  0.008243588321968158  2.6107371795187982e-05  1.0000
  Sb  Sb16      1.0  0.00022741640997431535  0.0017816282873330703  0.9999189248759128  1.0000
  Pt  Pt9       1.0  0.0013724130055315174  0.0038995096045005826  0.9999630534166436  1.0000
  Pt  Pt10      1.0  0.0038151751948815294  0.006064976383049064  0.999806705234504  1.0000
  Pt  Pt11      1.0  0.006184825001579081  0.0010649764213703544  0.9997928591912392  1.0000
  Pt  Pt12      1.0  0.008719552280414914  0.008976494482265684  0.9999541328225466  1.0000
  Pt  Pt13      1.0  0.00866355753960535  0.006446294930128128  7.417511608979078e-05  1.0000
  Pt  Pt14      1.0  0.006184825001579081  0.0039350235403083555  0.9996667157725037  1.0000
  Pt  Pt15      1.0  0.0038151751948815294  0.008935023821331146  0.9996805615602193  1.0000
  Pt  Pt16      1.0  0.002070550228894639  0.0009180102838910624  6.821279623177492e-05  1.0000
