data_image0
_chemical_formula_structural       HTa20
_chemical_formula_sum              "H1 Ta20"
_cell_length_a       4.697683334350586
_cell_length_b       7.4276895491308546
_cell_length_c       104.52078247070312
_cell_angle_alpha    75.03678277487123
_cell_angle_beta     90.0
_cell_angle_gamma    108.43494877728256

_space_group_name_H-M_alt    "P 1"
_space_group_IT_number       1

loop_
  _space_group_symop_operation_xyz
  'x, y, z'

loop_
  _atom_site_type_symbol
  _atom_site_label
  _atom_site_symmetry_multiplicity
  _atom_site_fract_x
  _atom_site_fract_y
  _atom_site_fract_z
  _atom_site_occupancy
  H   H1        1.0  0.008598606688609747  0.00619721373248611  0.0001143213946501782  1.0000
  Ta  Ta1       1.0  0.002999999882980836  0.004999999780235778  0.9999082564711403  1.0000
  Ta  Ta2       1.0  0.000999999998357053  0.0010000000109882112  0.999798164227436  1.0000
  Ta  Ta3       1.0  0.004999999904957258  0.008999999824188622  0.9994678875124524  1.0000
  Ta  Ta4       1.0  0.008999999723472792  0.0069999998022122  0.9996880719917963  1.0000
  Ta  Ta5       1.0  0.006999999838849009  0.0030000000329646337  0.9995779797480919  1.0000
  Ta  Ta6       1.0  0.002999999882980836  0.004999999780235778  0.9996330255873315  1.0000
  Ta  Ta7       1.0  0.000999999998357053  0.0010000000109882112  0.9995229333436271  1.0000
  Ta  Ta8       1.0  0.004999999904957258  0.008999999824188622  0.9997431178259953  1.0000
  Ta  Ta9       1.0  0.008999999723472792  0.0069999998022122  0.9999633023053394  1.0000
  Ta  Ta10      1.0  0.006999999838849009  0.0030000000329646337  0.999853210061635  1.0000
  Ta  Ta11      1.0  0.002999999882980836  0.004999999780235778  0.9993577952737884  1.0000
  Ta  Ta12      1.0  0.000999999998357053  0.0010000000109882112  0.9992477027449511  1.0000
  Ta  Ta13      1.0  0.004999999904957258  0.008999999824188622  0.9989174260299675  1.0000
  Ta  Ta14      1.0  0.008999999723472792  0.0069999998022122  0.9991376105093115  1.0000
  Ta  Ta15      1.0  0.006999999838849009  0.0030000000329646337  0.9990275182656071  1.0000
  Ta  Ta16      1.0  0.002999999882980836  0.004999999780235778  0.9990825643899794  1.0000
  Ta  Ta17      1.0  0.000999999998357053  0.0010000000109882112  0.998972472146275  1.0000
  Ta  Ta18      1.0  0.004999999904957258  0.008999999824188622  0.9991926566286434  1.0000
  Ta  Ta19      1.0  0.008999999723472792  0.0069999998022122  0.9994128411079874  1.0000
  Ta  Ta20      1.0  0.006999999838849009  0.0030000000329646337  0.999302748864283  1.0000
