data_image0
_chemical_formula_structural       COAl4Au8Cu4Al4Au8Cu4Al4Au8Cu4Al4Au8Cu4
_chemical_formula_sum              "C1 O1 Al16 Au32 Cu16"
_cell_length_a       8.970138549804688
_cell_length_b       8.970138549804688
_cell_length_c       108.05707550048828
_cell_angle_alpha    90.0
_cell_angle_beta     90.0
_cell_angle_gamma    90.0

_space_group_name_H-M_alt    "P 1"
_space_group_IT_number       1

loop_
  _space_group_symop_operation_xyz
  'x, y, z'

loop_
  _atom_site_type_symbol
  _atom_site_label
  _atom_site_symmetry_multiplicity
  _atom_site_fract_x
  _atom_site_fract_y
  _atom_site_fract_z
  _atom_site_occupancy
  C   C1        1.0  0.002500000382075155  4.499999830767754e-10  0.00016029041731008623  1.0000
  O   O1        1.0  0.002500000382075155  4.499999830767754e-10  0.0002713425132368918  1.0000
  Al  Al1       1.0  0.0024999999667760734  0.002500000174425614  0.9995644082122142  1.0000
  Al  Al2       1.0  0.009999999867104294  0.009999999036506132  0.9998693974265594  1.0000
  Al  Al3       1.0  0.0024999999667760734  0.002500000174425614  0.9989774181289127  1.0000
  Al  Al4       1.0  0.0  2.499999960990428e-10  0.9992709133084643  1.0000
  Au  Au1       1.0  0.0  0.002500000174425614  0.9997111556640891  1.0000
  Au  Au2       1.0  0.0024999999667760734  2.499999960990428e-10  0.9997111556640891  1.0000
  Au  Au3       1.0  0.002500000382075155  4.499999830767754e-10  0.0  1.0000
  Au  Au4       1.0  0.009999999036506132  0.002499999759126533  0.0  1.0000
  Au  Au5       1.0  0.0  0.002500000174425614  0.9991241655807876  1.0000
  Au  Au6       1.0  0.0024999999667760734  2.499999960990428e-10  0.9991241655807876  1.0000
  Au  Au7       1.0  0.0024999999667760734  2.499999960990428e-10  0.9994176607603392  1.0000
  Au  Au8       1.0  0.0  0.002500000174425614  0.9994176607603392  1.0000
  Cu  Cu1       1.0  0.0  2.499999960990428e-10  0.9995644082122142  1.0000
  Cu  Cu2       1.0  0.002499999759126533  0.002500000382075155  0.999859731129464  1.0000
  Cu  Cu3       1.0  0.0  2.499999960990428e-10  0.9989774181289127  1.0000
  Cu  Cu4       1.0  0.0024999999667760734  0.002500000174425614  0.9992709133084643  1.0000
  Al  Al5       1.0  0.0024999999667760734  0.007499999900328221  0.9995644082122142  1.0000
  Al  Al6       1.0  0.009999999867104294  0.004999999518253066  0.9998693974265594  1.0000
  Al  Al7       1.0  0.0024999999667760734  0.007499999900328221  0.9989774181289127  1.0000
  Al  Al8       1.0  0.0  0.004999999933552147  0.9992709133084643  1.0000
  Au  Au9       1.0  0.0  0.007499999900328221  0.9997111556640891  1.0000
  Au  Au10      1.0  0.0024999999667760734  0.004999999933552147  0.9997111556640891  1.0000
  Au  Au11      1.0  0.002500000382075155  0.005000000348851228  0.0  1.0000
  Au  Au12      1.0  0.009999999036506132  0.007499999900328221  0.0  1.0000
  Au  Au13      1.0  0.0  0.007499999900328221  0.9991241655807876  1.0000
  Au  Au14      1.0  0.0024999999667760734  0.004999999933552147  0.9991241655807876  1.0000
  Au  Au15      1.0  0.0024999999667760734  0.004999999933552147  0.9994176607603392  1.0000
  Au  Au16      1.0  0.0  0.007499999900328221  0.9994176607603392  1.0000
  Cu  Cu5       1.0  0.0  0.004999999933552147  0.9995644082122142  1.0000
  Cu  Cu6       1.0  0.002499999759126533  0.007499999900328221  0.999859731129464  1.0000
  Cu  Cu7       1.0  0.0  0.004999999933552147  0.9989774181289127  1.0000
  Cu  Cu8       1.0  0.0024999999667760734  0.007499999900328221  0.9992709133084643  1.0000
  Al  Al9       1.0  0.007499999900328221  0.002500000174425614  0.9995644082122142  1.0000
  Al  Al10      1.0  0.004999999933552147  0.009999999036506132  0.9998693974265594  1.0000
  Al  Al11      1.0  0.007499999900328221  0.002500000174425614  0.9989774181289127  1.0000
  Al  Al12      1.0  0.004999999933552147  2.499999960990428e-10  0.9992709133084643  1.0000
  Au  Au17      1.0  0.004999999933552147  0.002500000174425614  0.9997111556640891  1.0000
  Au  Au18      1.0  0.007499999900328221  2.499999960990428e-10  0.9997111556640891  1.0000
  Au  Au19      1.0  0.007499999900328221  4.499999830767754e-10  0.0  1.0000
  Au  Au20      1.0  0.004999999518253066  0.002499999759126533  0.0  1.0000
  Au  Au21      1.0  0.004999999933552147  0.002500000174425614  0.9991241655807876  1.0000
  Au  Au22      1.0  0.007499999900328221  2.499999960990428e-10  0.9991241655807876  1.0000
  Au  Au23      1.0  0.007499999900328221  2.499999960990428e-10  0.9994176607603392  1.0000
  Au  Au24      1.0  0.004999999933552147  0.002500000174425614  0.9994176607603392  1.0000
  Cu  Cu9       1.0  0.004999999933552147  2.499999960990428e-10  0.9995644082122142  1.0000
  Cu  Cu10      1.0  0.007499999900328221  0.002500000382075155  0.999859731129464  1.0000
  Cu  Cu11      1.0  0.004999999933552147  2.499999960990428e-10  0.9989774181289127  1.0000
  Cu  Cu12      1.0  0.007499999900328221  0.002500000174425614  0.9992709133084643  1.0000
  Al  Al13      1.0  0.007499999900328221  0.007499999900328221  0.9995644082122142  1.0000
  Al  Al14      1.0  0.004999999933552147  0.004999999518253066  0.9998693974265594  1.0000
  Al  Al15      1.0  0.007499999900328221  0.007499999900328221  0.9989774181289127  1.0000
  Al  Al16      1.0  0.004999999933552147  0.004999999933552147  0.9992709133084643  1.0000
  Au  Au25      1.0  0.004999999933552147  0.007499999900328221  0.9997111556640891  1.0000
  Au  Au26      1.0  0.007499999900328221  0.004999999933552147  0.9997111556640891  1.0000
  Au  Au27      1.0  0.007499999900328221  0.005000000348851228  0.0  1.0000
  Au  Au28      1.0  0.004999999518253066  0.007499999900328221  0.0  1.0000
  Au  Au29      1.0  0.004999999933552147  0.007499999900328221  0.9991241655807876  1.0000
  Au  Au30      1.0  0.007499999900328221  0.004999999933552147  0.9991241655807876  1.0000
  Au  Au31      1.0  0.007499999900328221  0.004999999933552147  0.9994176607603392  1.0000
  Au  Au32      1.0  0.004999999933552147  0.007499999900328221  0.9994176607603392  1.0000
  Cu  Cu13      1.0  0.004999999933552147  0.004999999933552147  0.9995644082122142  1.0000
  Cu  Cu14      1.0  0.007499999900328221  0.007499999900328221  0.999859731129464  1.0000
  Cu  Cu15      1.0  0.004999999933552147  0.004999999933552147  0.9989774181289127  1.0000
  Cu  Cu16      1.0  0.007499999900328221  0.007499999900328221  0.9992709133084643  1.0000
