data_image0
_chemical_formula_structural       HV4Sn4Rh8V4Sn4Rh8
_chemical_formula_sum              "H1 V8 Sn8 Rh16"
_cell_length_a       5.802181243896484
_cell_length_b       8.454810269721586
_cell_length_c       35.186912536621094
_cell_angle_alpha    69.93237504886146
_cell_angle_beta     90.0
_cell_angle_gamma    69.93237504886146

_space_group_name_H-M_alt    "P 1"
_space_group_IT_number       1

loop_
  _space_group_symop_operation_xyz
  'x, y, z'

loop_
  _atom_site_type_symbol
  _atom_site_label
  _atom_site_symmetry_multiplicity
  _atom_site_fract_x
  _atom_site_fract_y
  _atom_site_fract_z
  _atom_site_occupancy
  H   H1        1.0  0.0038179782692138336  0.0036756220633637772  0.9996587369388693  1.0000
  V   V1        1.0  0.007313403537057436  0.0066850747807187996  0.9993262166485819  1.0000
  V   V2        1.0  0.0025297947654908883  0.00625  0.9985529615662901  1.0000
  V   V3        1.0  0.00997020537305864  0.0013729362667498524  0.9989849964375808  1.0000
  V   V4        1.0  0.005029794752892923  0.0012500000251959317  0.9981407219626414  1.0000
  Sn  Sn1       1.0  0.007529794868218883  0.00625  0.9985529615662901  1.0000
  Sn  Sn2       1.0  0.0028283048695675636  0.005658615706490698  0.999533458443044  1.0000
  Sn  Sn3       1.0  2.9794650164927385e-05  0.0012500000251959317  0.9981407219626414  1.0000
  Sn  Sn4       1.0  0.004986423183470409  0.0013400728351897428  0.9990173588677848  1.0000
  Rh  Rh1       1.0  0.0062259610901168015  0.003968002456865372  0.9991412993345263  1.0000
  Rh  Rh2       1.0  0.0012797947393228225  0.003749999949608137  0.9983468417696592  1.0000
  Rh  Rh3       1.0  0.0011158296218348493  0.003967927121029806  0.9991413796558473  1.0000
  Rh  Rh4       1.0  0.006279794842050817  0.003749999949608137  0.9983468417696592  1.0000
  Rh  Rh5       1.0  0.008839457852680012  0.008734126361507518  0.9987353892034737  1.0000
  Rh  Rh6       1.0  0.00370993633069104  0.008629365709151389  0.9995057429688505  1.0000
  Rh  Rh7       1.0  0.0037340658236990278  0.008732575299956559  0.9987355708681078  1.0000
  Rh  Rh8       1.0  0.008976084203094113  0.008629427187224559  0.9995057074091217  1.0000
  V   V5        1.0  0.007529794868218883  0.00625  0.9977284815331149  1.0000
  V   V6        1.0  0.0025297947654908883  0.00625  0.9969040019234255  1.0000
  V   V7        1.0  2.9794650164927385e-05  0.0012500000251959317  0.9973162415059802  1.0000
  V   V8        1.0  0.005029794752892923  0.0012500000251959317  0.9964917616845479  1.0000
  Sn  Sn5       1.0  0.007529794868218883  0.00625  0.9969040019234255  1.0000
  Sn  Sn6       1.0  0.0025297947654908883  0.00625  0.9977284815331149  1.0000
  Sn  Sn7       1.0  2.9794650164927385e-05  0.0012500000251959317  0.9964917616845479  1.0000
  Sn  Sn8       1.0  0.005029794752892923  0.0012500000251959317  0.9973162415059802  1.0000
  Rh  Rh9       1.0  0.006279794842050817  0.003749999949608137  0.9975223617364839  1.0000
  Rh  Rh10      1.0  0.0012797947393228225  0.003749999949608137  0.9966978817033086  1.0000
  Rh  Rh11      1.0  0.0012797947393228225  0.003749999949608137  0.9975223617364839  1.0000
  Rh  Rh12      1.0  0.006279794842050817  0.003749999949608137  0.9966978817033086  1.0000
  Rh  Rh13      1.0  0.008779795020366608  0.008749999798432547  0.99711012174083  1.0000
  Rh  Rh14      1.0  0.0037797949176386126  0.008749999798432547  0.9979346017740054  1.0000
  Rh  Rh15      1.0  0.0037797949176386126  0.008749999798432547  0.99711012174083  1.0000
  Rh  Rh16      1.0  0.008779795020366608  0.008749999798432547  0.9979346017740054  1.0000
