data_image0
_chemical_formula_structural       HFe16W8
_chemical_formula_sum              "H1 Fe16 W8"
_cell_length_a       9.059597191635659
_cell_length_b       4.663096793041869
_cell_length_c       106.23838806152344
_cell_angle_alpha    75.08672278778555
_cell_angle_beta     118.04338966693054
_cell_angle_gamma    75.08672140047084

_space_group_name_H-M_alt    "P 1"
_space_group_IT_number       1

loop_
  _space_group_symop_operation_xyz
  'x, y, z'

loop_
  _atom_site_type_symbol
  _atom_site_label
  _atom_site_symmetry_multiplicity
  _atom_site_fract_x
  _atom_site_fract_y
  _atom_site_fract_z
  _atom_site_occupancy
  H   H1        1.0  0.00947691312019727  0.007206982222901643  0.000236123625045521  1.0000
  Fe  Fe1       1.0  0.00019883595587522426  0.007481005214412834  0.9995401778081117  1.0000
  Fe  Fe2       1.0  0.005198835802518754  0.007481005004442413  0.9999665584923743  1.0000
  Fe  Fe3       1.0  0.0026988360416508772  0.0074810049815424865  0.0001797486891467365  1.0000
  Fe  Fe4       1.0  0.007698835823312852  0.007481004822726121  0.9997533683083341  1.0000
  Fe  Fe5       1.0  0.0005965078676256727  0.005776349004129668  0.9993608995380033  1.0000
  Fe  Fe6       1.0  0.005596507844232313  0.005776349105218625  0.9997872799434394  1.0000
  Fe  Fe7       1.0  0.002244179854754725  0.00918566149069839  0.9999277869057464  1.0000
  Fe  Fe8       1.0  0.0072441796364167005  0.009185662158616997  0.9995014065155947  1.0000
  Fe  Fe9       1.0  0.009801163802393391  0.004071692941471989  0.9997194561528547  1.0000
  Fe  Fe10      1.0  0.004801164280657637  0.004071692895672136  0.00014583682692280802  1.0000
  Fe  Fe11      1.0  0.0005965078676256727  0.0008903176115079639  0.9993608994298329  1.0000
  Fe  Fe12      1.0  0.005596507844232313  0.0008903177125969204  0.9997872801157921  1.0000
  Fe  Fe13      1.0  0.008153492010209004  0.005776349140305192  5.329521349342362e-06  1.0000
  Fe  Fe14      1.0  0.003153492228547029  0.0057763492991215575  0.999578949401316  1.0000
  Fe  Fe15      1.0  0.009801163802393391  0.00918566136696859  0.9997194561028435  1.0000
  Fe  Fe16      1.0  0.004801164280657637  0.009185661321168739  0.00014583705743466584  1.0000
  W   W1        1.0  0.0031884361897847016  0.00414767206359975  0.999853743565282  1.0000
  W   W2        1.0  0.008188435971446677  0.004147671904783385  0.9994273631844693  1.0000
  W   W3        1.0  0.009021769831563817  0.0008143383000619091  0.9999248071689057  1.0000
  W   W4        1.0  0.004021769530049401  0.0008143384547432263  0.9994984267475542  1.0000
  W   W5        1.0  0.007209235675179028  0.0008143387492855249  7.93728036544297e-05  1.0000
  W   W6        1.0  0.0022092358935170524  0.0008143384947344043  0.9996529926882906  1.0000
  W   W7        1.0  0.001375902423289243  0.004147671792531551  8.309784844796264e-06  1.0000
  W   W8        1.0  0.006375902334914328  0.00414767235814205  0.9995819291205362  1.0000
