data_image0
_chemical_formula_structural       In3Sb3CO
_chemical_formula_sum              "In3 Sb3 C1 O1"
_cell_length_a       4.755272388458252
_cell_length_b       4.7552726139401305
_cell_length_c       104.94397735595703
_cell_angle_alpha    90.0
_cell_angle_beta     90.0
_cell_angle_gamma    119.99999843145052

_space_group_name_H-M_alt    "P 1"
_space_group_IT_number       1

loop_
  _space_group_symop_operation_xyz
  'x, y, z'

loop_
  _atom_site_type_symbol
  _atom_site_label
  _atom_site_symmetry_multiplicity
  _atom_site_fract_x
  _atom_site_fract_y
  _atom_site_fract_z
  _atom_site_occupancy
  In  In1       1.0  0.0033333333000632017  0.006666666564145929  0.9991694617122362  1.0000
  In  In2       1.0  0.009999999989179664  0.010000000072367581  0.9999181560530815  1.0000
  In  In3       1.0  0.006666666985733399  0.0033333332820729643  0.9995394366779164  1.0000
  Sb  Sb1       1.0  1.000000010270936e-10  4.9999999416227476e-11  0.9996319299933618  1.0000
  Sb  Sb2       1.0  0.006666666985733399  0.0033333332820729643  0.9992619553116646  1.0000
  Sb  Sb3       1.0  0.0033333331500631945  0.006666666564145929  0.0  1.0000
  C   C1        1.0  0.009999999989179664  0.010000000072367581  0.00019057825932517096  1.0000
  O   O1        1.0  0.009999999989179664  0.010000000072367581  0.0003049246469539521  1.0000
