data_image0
_chemical_formula_structural       COCo16
_chemical_formula_sum              "C1 O1 Co16"
_cell_length_a       4.943025822941962
_cell_length_b       4.690155053136685
_cell_length_c       107.521240234375
_cell_angle_alpha    63.60024333154095
_cell_angle_beta     74.72341666082946
_cell_angle_gamma    105.27658190668232

_space_group_name_H-M_alt    "P 1"
_space_group_IT_number       1

loop_
  _space_group_symop_operation_xyz
  'x, y, z'

loop_
  _atom_site_type_symbol
  _atom_site_label
  _atom_site_symmetry_multiplicity
  _atom_site_fract_x
  _atom_site_fract_y
  _atom_site_fract_z
  _atom_site_occupancy
  C   C1        1.0  0.008970957373083887  0.0066539663494742255  6.939648987167908e-05  1.0000
  O   O1        1.0  0.008970957373083887  0.0066539663494742255  0.00018100257154016983  1.0000
  Co  Co1       1.0  0.0026957094300633254  0.0004166667131735145  0.9998017264049572  1.0000
  Co  Co2       1.0  0.0026957095432663947  0.00541666705518405  0.9995836230333666  1.0000
  Co  Co3       1.0  0.0010290428021382985  0.009583333754775918  0.9996199735332488  1.0000
  Co  Co4       1.0  0.001029042750652714  0.004583333320163252  0.999838076905888  1.0000
  Co  Co5       1.0  0.0026957094300633254  0.0004166667131735145  0.9993655193451736  1.0000
  Co  Co6       1.0  0.0026957095432663947  0.00541666705518405  0.9991474154192307  1.0000
  Co  Co7       1.0  0.0010290428021382985  0.009583333754775918  0.999183765919113  1.0000
  Co  Co8       1.0  0.001029042750652714  0.004583333320163252  0.9994018698461044  1.0000
  Co  Co9       1.0  0.007695709594126055  0.0004166667131735145  0.9998017265304711  1.0000
  Co  Co10      1.0  0.007695709414359963  0.00541666705518405  0.9995836226080768  1.0000
  Co  Co11      1.0  0.006029042966201028  0.009583333754775918  0.9996199736587627  1.0000
  Co  Co12      1.0  0.006029042914715443  0.004583333320163252  0.9998380770314017  1.0000
  Co  Co13      1.0  0.007695709594126055  0.0004166667131735145  0.9993655194706874  1.0000
  Co  Co14      1.0  0.007695709414359963  0.00541666705518405  0.9991474155482931  1.0000
  Co  Co15      1.0  0.006029042966201028  0.009583333754775918  0.9991837660446267  1.0000
  Co  Co16      1.0  0.006029042914715443  0.004583333320163252  0.9994018699716182  1.0000
