data_image0
_chemical_formula_structural       COCo6Sn6Rh12Co6Sn6Rh12
_chemical_formula_sum              "C1 O1 Co12 Sn12 Rh24"
_cell_length_a       7.163628101348877
_cell_length_b       9.13103686000621
_cell_length_c       104.64984893798828
_cell_angle_alpha    71.56505259634427
_cell_angle_beta     90.0
_cell_angle_gamma    90.0

_space_group_name_H-M_alt    "P 1"
_space_group_IT_number       1

loop_
  _space_group_symop_operation_xyz
  'x, y, z'

loop_
  _atom_site_type_symbol
  _atom_site_label
  _atom_site_symmetry_multiplicity
  _atom_site_fract_x
  _atom_site_fract_y
  _atom_site_fract_z
  _atom_site_occupancy
  C   C1        1.0  0.001184511144899924  0.008613318986871439  0.9998387878047509  1.0000
  O   O1        1.0  0.001184511144899924  0.008613318986871439  0.9999534561434105  1.0000
  Co  Co1       1.0  5.4250000806017666e-08  0.006673613691410013  0.9989949722455699  1.0000
  Co  Co2       1.0  5.4250000806017666e-08  0.003340280573101588  0.9988110262801659  1.0000
  Co  Co3       1.0  5.4250000806017666e-08  6.9473997770245454e-06  0.9991789181719104  1.0000
  Co  Co4       1.0  0.005000054145360478  0.006673613691410013  0.9987190533177547  1.0000
  Co  Co5       1.0  0.005000054145360478  0.003340280573101588  0.9990869452079811  1.0000
  Co  Co6       1.0  0.005000054145360478  6.9473997770245454e-06  0.9989029992440952  1.0000
  Sn  Sn1       1.0  5.4250000806017666e-08  0.006673613691410013  0.9987190533177547  1.0000
  Sn  Sn2       1.0  5.4250000806017666e-08  0.003340280573101588  0.9990869452079811  1.0000
  Sn  Sn3       1.0  5.4250000806017666e-08  6.9473997770245454e-06  0.9989029992440952  1.0000
  Sn  Sn4       1.0  0.005000054145360478  0.006673613691410013  0.9989949722455699  1.0000
  Sn  Sn5       1.0  0.005000054145360478  0.003340280573101588  0.9988110262801659  1.0000
  Sn  Sn6       1.0  0.005000054145360478  6.9473997770245454e-06  0.9991789181719104  1.0000
  Rh  Rh1       1.0  0.007500054436576401  0.00834028035807668  0.9988110262974902  1.0000
  Rh  Rh2       1.0  0.007500054436576401  0.005006947024743347  0.9991789181936496  1.0000
  Rh  Rh3       1.0  0.007500054436576401  0.0016736140139473757  0.9989949722252792  1.0000
  Rh  Rh4       1.0  0.007500054436576401  0.005006947024743347  0.9989029992658344  1.0000
  Rh  Rh5       1.0  0.007500054436576401  0.0016736140139473757  0.998719053297464  1.0000
  Rh  Rh6       1.0  0.007500054436576401  0.00834028035807668  0.9990869452253054  1.0000
  Rh  Rh7       1.0  0.0025000543741729884  0.005006947024743347  0.9989029992658344  1.0000
  Rh  Rh8       1.0  0.0025000543741729884  0.0016736140139473757  0.998719053297464  1.0000
  Rh  Rh9       1.0  0.0025000543741729884  0.00834028035807668  0.9990869452253054  1.0000
  Rh  Rh10      1.0  0.0025000543741729884  0.00834028035807668  0.9988110262974902  1.0000
  Rh  Rh11      1.0  0.0025000543741729884  0.005006947024743347  0.9991789181936496  1.0000
  Rh  Rh12      1.0  0.0025000543741729884  0.0016736140139473757  0.9989949722252792  1.0000
  Co  Co7       1.0  2.6205000546211705e-07  0.006661411457903284  0.999546742394413  1.0000
  Co  Co8       1.0  5.4250000806017666e-08  0.003340280573101588  0.9993628641357963  1.0000
  Co  Co9       1.0  0.009999946041849759  8.743839401981326e-05  0.9996980658055763  1.0000
  Co  Co10      1.0  0.005000054145360478  0.006673613691410013  0.9992708911733851  1.0000
  Co  Co11      1.0  0.005000091067379244  0.0034100469098340353  0.9996215140608273  1.0000
  Co  Co12      1.0  0.005000091587407677  0.009951884306278039  0.9994614061597665  1.0000
  Sn  Sn7       1.0  5.4250000806017666e-08  0.006673613691410013  0.9992708911733851  1.0000
  Sn  Sn8       1.0  0.009999724509737162  0.003077823750103212  0.999671422681006  1.0000
  Sn  Sn9       1.0  2.1954999616433367e-07  3.292459718846331e-05  0.9994461726625886  1.0000
  Sn  Sn10      1.0  0.0050002205544591415  0.006700155936063634  0.9995466632608913  1.0000
  Sn  Sn11      1.0  0.005000054145360478  0.003340280573101588  0.9993628641357963  1.0000
  Sn  Sn12      1.0  0.0050002553963641744  0.00999305211515702  0.9997242728002451  1.0000
  Rh  Rh13      1.0  0.007500054436576401  0.00834028035807668  0.9993628641531205  1.0000
  Rh  Rh14      1.0  0.007609916683457345  0.005104516727217681  0.9997055696096254  1.0000
  Rh  Rh15      1.0  0.0075109427919133435  0.0016974192065408857  0.9995479570555393  1.0000
  Rh  Rh16      1.0  0.007609203724475258  0.0049462368920815784  0.9994559107706443  1.0000
  Rh  Rh17      1.0  0.007500054436576401  0.0016736140139473757  0.9992708911530944  1.0000
  Rh  Rh18      1.0  0.007631103161859408  0.008403730768172185  0.9996305638412071  1.0000
  Rh  Rh19      1.0  0.002390696814886585  0.004946107017036854  0.9994559075193906  1.0000
  Rh  Rh20      1.0  0.0025000543741729884  0.0016736140139473757  0.9992708911530944  1.0000
  Rh  Rh21      1.0  0.00236907663277113  0.008403788394847659  0.9996305867423718  1.0000
  Rh  Rh22      1.0  0.0025000543741729884  0.00834028035807668  0.9993628641531205  1.0000
  Rh  Rh23      1.0  0.002390112042913312  0.0051040449625684645  0.9997056116741988  1.0000
  Rh  Rh24      1.0  0.002489407572043325  0.0016974872619244213  0.9995479620125144  1.0000
