data_image0
_chemical_formula_structural       Si6Pt4Si6Pt4Si6Pt4Si6Pt4H
_chemical_formula_sum              "Si24 Pt16 H1"
_cell_length_a       7.908113479614258
_cell_length_b       7.908113411283123
_cell_length_c       106.45933532714844
_cell_angle_alpha    90.0
_cell_angle_beta     90.0
_cell_angle_gamma    120.00000028582996

_space_group_name_H-M_alt    "P 1"
_space_group_IT_number       1

loop_
  _space_group_symop_operation_xyz
  'x, y, z'

loop_
  _atom_site_type_symbol
  _atom_site_label
  _atom_site_symmetry_multiplicity
  _atom_site_fract_x
  _atom_site_fract_y
  _atom_site_fract_z
  _atom_site_occupancy
  Si  Si1       1.0  0.0016666672758024264  0.004166665451851655  0.999597322368405  1.0000
  Si  Si2       1.0  0.0033333339634747127  0.0024999989991374826  0.9990265360258769  1.0000
  Si  Si3       1.0  0.0033333339634747127  0.0024999989991374826  0.9994484089252004  1.0000
  Si  Si4       1.0  0.0016666605503443625  0.004166667899613246  0.0  1.0000
  Si  Si5       1.0  5.942208187213385e-10  0.000833332206456423  0.9992374723355681  1.0000
  Si  Si6       1.0  0.009999999222309312  0.0008333326824100657  0.9997998954436407  1.0000
  Pt  Pt1       1.0  0.0016666672758024264  0.004166665451851655  0.999366272024944  1.0000
  Pt  Pt2       1.0  0.003333335366927089  0.002499997095322912  0.9999374270496404  1.0000
  Pt  Pt3       1.0  0.0033333339634747127  0.0024999989991374826  0.9996794592686614  1.0000
  Pt  Pt4       1.0  0.0016666672758024264  0.004166665451851655  0.9991086729261333  1.0000
  Si  Si7       1.0  0.0016666675259073402  0.009166665897888211  0.999597322368405  1.0000
  Si  Si8       1.0  0.0033333340481508764  0.007499999173200529  0.9990265360258769  1.0000
  Si  Si9       1.0  0.0033333340481508764  0.007499999173200529  0.9994484089252004  1.0000
  Si  Si10      1.0  0.0016666606055785304  0.009166668073676292  0.0  1.0000
  Si  Si11      1.0  8.012196583680817e-10  0.005833332448512847  0.9992374723355681  1.0000
  Si  Si12      1.0  0.009999999433862846  0.005833332992459867  0.9997998954436407  1.0000
  Pt  Pt5       1.0  0.0016666675259073402  0.009166665897888211  0.999366272024944  1.0000
  Pt  Pt6       1.0  0.003333335256732506  0.007499996997412448  0.9999374270496404  1.0000
  Pt  Pt7       1.0  0.0033333340481508764  0.007499999173200529  0.9996794592686614  1.0000
  Pt  Pt8       1.0  0.0016666675259073402  0.009166665897888211  0.9991086729261333  1.0000
  Si  Si13      1.0  0.006666667133303167  0.004166665451851655  0.999597322368405  1.0000
  Si  Si14      1.0  0.00833333385041745  0.0024999989991374826  0.9990265360258769  1.0000
  Si  Si15      1.0  0.00833333385041745  0.0024999989991374826  0.9994484089252004  1.0000
  Si  Si16      1.0  0.006666660348961111  0.004166667899613246  0.0  1.0000
  Si  Si17      1.0  0.005000000510605551  0.000833332206456423  0.9992374723355681  1.0000
  Si  Si18      1.0  0.004999999335366575  0.0008333326824100657  0.9997998954436407  1.0000
  Pt  Pt9       1.0  0.006666667133303167  0.004166665451851655  0.999366272024944  1.0000
  Pt  Pt10      1.0  0.008333335253869827  0.002499997095322912  0.9999374270496404  1.0000
  Pt  Pt11      1.0  0.00833333385041745  0.0024999989991374826  0.9996794592686614  1.0000
  Pt  Pt12      1.0  0.006666667133303167  0.004166665451851655  0.9991086729261333  1.0000
  Si  Si19      1.0  0.006666667412850077  0.009166665897888211  0.999597322368405  1.0000
  Si  Si20      1.0  0.008333333993977605  0.007499999173200529  0.9990265360258769  1.0000
  Si  Si21      1.0  0.008333333993977605  0.007499999173200529  0.9994484089252004  1.0000
  Si  Si22      1.0  0.006666660728057233  0.009166668073676292  0.0  1.0000
  Si  Si23      1.0  0.005000000688162394  0.005833332448512847  0.9992374723355681  1.0000
  Si  Si24      1.0  0.004999999546920108  0.005833332992459867  0.9997998954436407  1.0000
  Pt  Pt13      1.0  0.006666667412850077  0.009166665897888211  0.999366272024944  1.0000
  Pt  Pt14      1.0  0.008333335261443225  0.007499996997412448  0.9999374270496404  1.0000
  Pt  Pt15      1.0  0.008333333993977605  0.007499999173200529  0.9996794592686614  1.0000
  Pt  Pt16      1.0  0.006666667412850077  0.009166665897888211  0.9991086729261333  1.0000
  H   H1        1.0  0.003333335366927089  0.002499997095322912  7.832578481275187e-05  1.0000
