data_image0
_chemical_formula_structural       COAl4Fe8W4Al4Fe8W4Al4Fe8W4Al4Fe8W4
_chemical_formula_sum              "C1 O1 Al16 Fe32 W16"
_cell_length_a       8.298910140991211
_cell_length_b       8.298910140991211
_cell_length_c       105.20929718017578
_cell_angle_alpha    90.0
_cell_angle_beta     90.0
_cell_angle_gamma    90.0

_space_group_name_H-M_alt    "P 1"
_space_group_IT_number       1

loop_
  _space_group_symop_operation_xyz
  'x, y, z'

loop_
  _atom_site_type_symbol
  _atom_site_label
  _atom_site_symmetry_multiplicity
  _atom_site_fract_x
  _atom_site_fract_y
  _atom_site_fract_z
  _atom_site_occupancy
  C   C1        1.0  0.003750000008977782  0.0012500000404000189  0.00016462911728816688  1.0000
  O   O1        1.0  0.003750000008977782  0.0012500000404000189  0.0002786871429158811  1.0000
  Al  Al1       1.0  0.0012500000404000189  0.003750000008977782  0.9994422342391689  1.0000
  Al  Al2       1.0  0.003750000008977782  0.0012500000404000189  0.9991633510754864  1.0000
  Al  Al3       1.0  0.0012500000404000189  0.003750000008977782  0.0  1.0000
  Al  Al4       1.0  0.003750000008977782  0.0012500000404000189  0.9997211168363175  1.0000
  Fe  Fe1       1.0  0.003750000008977782  0.003750000008977782  0.9993027926573277  1.0000
  Fe  Fe2       1.0  0.003750000008977782  0.003750000008977782  0.9990239094936452  1.0000
  Fe  Fe3       1.0  0.0012500000404000189  0.0012500000404000189  0.9990239094936452  1.0000
  Fe  Fe4       1.0  0.0012500000404000189  0.0012500000404000189  0.9993027926573277  1.0000
  Fe  Fe5       1.0  0.003750000008977782  0.003750000008977782  0.9998605584181587  1.0000
  Fe  Fe6       1.0  0.003750000008977782  0.003750000008977782  0.9995816752544762  1.0000
  Fe  Fe7       1.0  0.0012500000404000189  0.0012500000404000189  0.9995816752544762  1.0000
  Fe  Fe8       1.0  0.0012500000404000189  0.0012500000404000189  0.9998605584181587  1.0000
  W   W1        1.0  0.003750000008977782  0.0012500000404000189  0.9994422342391689  1.0000
  W   W2        1.0  0.0012500000404000189  0.003750000008977782  0.9991633510754864  1.0000
  W   W3        1.0  0.003750000008977782  0.0012500000404000189  0.0  1.0000
  W   W4        1.0  0.0012500000404000189  0.003750000008977782  0.9997211168363175  1.0000
  Al  Al5       1.0  0.0012500000404000189  0.008750000395022406  0.9994422342391689  1.0000
  Al  Al6       1.0  0.003750000008977782  0.006250000089777819  0.9991633510754864  1.0000
  Al  Al7       1.0  0.0012500000404000189  0.008750000395022406  0.0  1.0000
  Al  Al8       1.0  0.003750000008977782  0.006250000089777819  0.9997211168363175  1.0000
  Fe  Fe9       1.0  0.003750000008977782  0.008750000395022406  0.9993027926573277  1.0000
  Fe  Fe10      1.0  0.003750000008977782  0.008750000395022406  0.9990239094936452  1.0000
  Fe  Fe11      1.0  0.0012500000404000189  0.006250000089777819  0.9990239094936452  1.0000
  Fe  Fe12      1.0  0.0012500000404000189  0.006250000089777819  0.9993027926573277  1.0000
  Fe  Fe13      1.0  0.003750000008977782  0.008750000395022406  0.9998605584181587  1.0000
  Fe  Fe14      1.0  0.003750000008977782  0.008750000395022406  0.9995816752544762  1.0000
  Fe  Fe15      1.0  0.0012500000404000189  0.006250000089777819  0.9995816752544762  1.0000
  Fe  Fe16      1.0  0.0012500000404000189  0.006250000089777819  0.9998605584181587  1.0000
  W   W5        1.0  0.003750000008977782  0.006250000089777819  0.9994422342391689  1.0000
  W   W6        1.0  0.0012500000404000189  0.008750000395022406  0.9991633510754864  1.0000
  W   W7        1.0  0.003750000008977782  0.006250000089777819  0.0  1.0000
  W   W8        1.0  0.0012500000404000189  0.008750000395022406  0.9997211168363175  1.0000
  Al  Al9       1.0  0.006250000089777819  0.003750000008977782  0.9994422342391689  1.0000
  Al  Al10      1.0  0.008750000395022406  0.0012500000404000189  0.9991633510754864  1.0000
  Al  Al11      1.0  0.006250000089777819  0.003750000008977782  0.0  1.0000
  Al  Al12      1.0  0.008750000395022406  0.0012500000404000189  0.9997211168363175  1.0000
  Fe  Fe17      1.0  0.008750000395022406  0.003750000008977782  0.9993027926573277  1.0000
  Fe  Fe18      1.0  0.008750000395022406  0.003750000008977782  0.9990239094936452  1.0000
  Fe  Fe19      1.0  0.006250000089777819  0.0012500000404000189  0.9990239094936452  1.0000
  Fe  Fe20      1.0  0.006250000089777819  0.0012500000404000189  0.9993027926573277  1.0000
  Fe  Fe21      1.0  0.008750000395022406  0.003750000008977782  0.9998605584181587  1.0000
  Fe  Fe22      1.0  0.008750000395022406  0.003750000008977782  0.9995816752544762  1.0000
  Fe  Fe23      1.0  0.006250000089777819  0.0012500000404000189  0.9995816752544762  1.0000
  Fe  Fe24      1.0  0.006250000089777819  0.0012500000404000189  0.9998605584181587  1.0000
  W   W9        1.0  0.008750000395022406  0.0012500000404000189  0.9994422342391689  1.0000
  W   W10       1.0  0.006250000089777819  0.003750000008977782  0.9991633510754864  1.0000
  W   W11       1.0  0.008750000395022406  0.0012500000404000189  0.0  1.0000
  W   W12       1.0  0.006250000089777819  0.003750000008977782  0.9997211168363175  1.0000
  Al  Al13      1.0  0.006250000089777819  0.008750000395022406  0.9994422342391689  1.0000
  Al  Al14      1.0  0.008750000395022406  0.006250000089777819  0.9991633510754864  1.0000
  Al  Al15      1.0  0.006250000089777819  0.008750000395022406  0.0  1.0000
  Al  Al16      1.0  0.008750000395022406  0.006250000089777819  0.9997211168363175  1.0000
  Fe  Fe25      1.0  0.008750000395022406  0.008750000395022406  0.9993027926573277  1.0000
  Fe  Fe26      1.0  0.008750000395022406  0.008750000395022406  0.9990239094936452  1.0000
  Fe  Fe27      1.0  0.006250000089777819  0.006250000089777819  0.9990239094936452  1.0000
  Fe  Fe28      1.0  0.006250000089777819  0.006250000089777819  0.9993027926573277  1.0000
  Fe  Fe29      1.0  0.008750000395022406  0.008750000395022406  0.9998605584181587  1.0000
  Fe  Fe30      1.0  0.008750000395022406  0.008750000395022406  0.9995816752544762  1.0000
  Fe  Fe31      1.0  0.006250000089777819  0.006250000089777819  0.9995816752544762  1.0000
  Fe  Fe32      1.0  0.006250000089777819  0.006250000089777819  0.9998605584181587  1.0000
  W   W13       1.0  0.008750000395022406  0.006250000089777819  0.9994422342391689  1.0000
  W   W14       1.0  0.006250000089777819  0.008750000395022406  0.9991633510754864  1.0000
  W   W15       1.0  0.008750000395022406  0.006250000089777819  0.0  1.0000
  W   W16       1.0  0.006250000089777819  0.008750000395022406  0.9997211168363175  1.0000
