data_image0
_chemical_formula_structural       Ag12Sn4Ag12Sn4H
_chemical_formula_sum              "Ag24 Sn8 H1"
_cell_length_a       4.954258918762207
_cell_length_b       13.444295874496733
_cell_length_c       33.016815185546875
_cell_angle_alpha    66.86007421792654
_cell_angle_beta     90.0
_cell_angle_gamma    90.0

_space_group_name_H-M_alt    "P 1"
_space_group_IT_number       1

loop_
  _space_group_symop_operation_xyz
  'x, y, z'

loop_
  _atom_site_type_symbol
  _atom_site_label
  _atom_site_symmetry_multiplicity
  _atom_site_fract_x
  _atom_site_fract_y
  _atom_site_fract_z
  _atom_site_occupancy
  Ag  Ag1       1.0  0.005000000180464866  0.005622728450098328  0.998057556748535  1.0000
  Ag  Ag2       1.0  0.004999997924654042  0.0006262150211954753  0.9988748208734836  1.0000
  Ag  Ag3       1.0  1.9999998995666456e-10  0.0031227287273253375  0.9978993890980864  1.0000
  Ag  Ag4       1.0  0.00999999885705585  0.00806187172163392  0.9987099486744703  1.0000
  Ag  Ag5       1.0  0.009999999608992791  0.004271287157965512  0.9985356670829435  1.0000
  Ag  Ag6       1.0  0.009999999608992791  0.009377271091874438  0.9992574877606784  1.0000
  Ag  Ag7       1.0  0.00500000243627569  0.0045343623312078035  0.9990037706263835  1.0000
  Ag  Ag8       1.0  0.005000000180464866  0.009375205147986959  0.9982415455253567  1.0000
  Ag  Ag9       1.0  3.9999997991332913e-10  0.0018397605478464695  0.9988941359554311  1.0000
  Ag  Ag10      1.0  1.9999998995666456e-10  0.0068752051238802625  0.9981146548759796  1.0000
  Ag  Ag11      1.0  0.005000000180464866  0.0018702520535434025  0.9978422909706417  1.0000
  Ag  Ag12      1.0  0.004999997924654042  0.006895664477174352  0.9986953376489917  1.0000
  Sn  Sn1       1.0  1.099999978375856e-09  0.0055920352014853115  0.9990625269361391  1.0000
  Sn  Sn2       1.0  1.9999998995666456e-10  0.000622728816218781  0.9983075035244094  1.0000
  Sn  Sn3       1.0  0.005000000180464866  0.00305086124114156  0.9985167236593044  1.0000
  Sn  Sn4       1.0  0.005000002060307219  0.00820323941640812  0.9992353086375784  1.0000
  Ag  Ag13      1.0  0.005000000180464866  0.005622728450098328  0.9964573683385287  1.0000
  Ag  Ag14      1.0  0.005000000180464866  0.000622728816218781  0.9972574624578664  1.0000
  Ag  Ag15      1.0  1.9999998995666456e-10  0.0031227287273253375  0.9962992006880801  1.0000
  Ag  Ag16      1.0  1.9999998995666456e-10  0.008122728474205023  0.9970992949606665  1.0000
  Ag  Ag17      1.0  1.9999998995666456e-10  0.0043702517763163935  0.9969153061838447  1.0000
  Ag  Ag18      1.0  1.9999998995666456e-10  0.009370251824529786  0.997715400408212  1.0000
  Ag  Ag19      1.0  0.005000000180464866  0.0043752054011072725  0.9974414512527704  1.0000
  Ag  Ag20      1.0  0.005000000180464866  0.009375205147986959  0.9966413571153504  1.0000
  Ag  Ag21      1.0  1.9999998995666456e-10  0.0018752055276674289  0.9973145605792837  1.0000
  Ag  Ag22      1.0  1.9999998995666456e-10  0.0068752051238802625  0.9965144664659734  1.0000
  Ag  Ag23      1.0  0.005000000180464866  0.0018702520535434025  0.9962421025606355  1.0000
  Ag  Ag24      1.0  0.005000000180464866  0.006870251800423089  0.9970421968332218  1.0000
  Sn  Sn5       1.0  1.9999998995666456e-10  0.005622728450098328  0.9975074094050717  1.0000
  Sn  Sn6       1.0  1.9999998995666456e-10  0.000622728816218781  0.9967073151144031  1.0000
  Sn  Sn7       1.0  0.005000000180464866  0.0031227287273253375  0.9968493480315435  1.0000
  Sn  Sn8       1.0  0.005000000180464866  0.008122728474205023  0.9976494418528095  1.0000
  H   H1        1.0  0.0050000013083702785  0.003792611635507829  0.9992145611433849  1.0000
