data_image0
_chemical_formula_structural       COCa4Ge4Ca4Ge4
_chemical_formula_sum              "C1 O1 Ca8 Ge8"
_cell_length_a       4.646315097808838
_cell_length_b       11.751580068721346
_cell_length_c       102.56619262695312
_cell_angle_alpha    69.73258059206727
_cell_angle_beta     90.0
_cell_angle_gamma    90.0

_space_group_name_H-M_alt    "P 1"
_space_group_IT_number       1

loop_
  _space_group_symop_operation_xyz
  'x, y, z'

loop_
  _atom_site_type_symbol
  _atom_site_label
  _atom_site_symmetry_multiplicity
  _atom_site_fract_x
  _atom_site_fract_y
  _atom_site_fract_z
  _atom_site_occupancy
  C   C1        1.0  0.005000000352780149  0.007342039893394997  0.9998553536564507  1.0000
  O   O1        1.0  0.005000000352780149  0.007342039893394997  0.9999723515093626  1.0000
  Ca  Ca1       1.0  0.005000000352780149  0.0035842791602271554  0.9992546487937799  1.0000
  Ca  Ca2       1.0  1.0000000385594599e-10  0.0013191086195536656  0.999146105657905  1.0000
  Ca  Ca3       1.0  1.0000000385594599e-10  0.008584278957471759  0.9990562026094655  1.0000
  Ca  Ca4       1.0  0.005000000352780149  0.006319108501279684  0.9993445521106595  1.0000
  Ge  Ge1       1.0  0.005000000352780149  0.0007199524814340938  0.9993683317383972  1.0000
  Ge  Ge2       1.0  1.0000000385594599e-10  0.004183435213865312  0.9990324227166407  1.0000
  Ge  Ge3       1.0  1.0000000385594599e-10  0.00571995278556719  0.9991698855339648  1.0000
  Ge  Ge4       1.0  0.005000000352780149  0.009183435349035577  0.9992308691593362  1.0000
  Ca  Ca5       1.0  0.004999999150120551  0.0035670111589001076  0.9996512359555022  1.0000
  Ca  Ca6       1.0  3.000000055941631e-10  0.0013453072357940377  0.9995368491699582  1.0000
  Ca  Ca7       1.0  1.0000000385594599e-10  0.008584278957471759  0.9994530952498875  1.0000
  Ca  Ca8       1.0  0.005000000352780149  0.006492541412925046  0.9997189910225228  1.0000
  Ge  Ge5       1.0  0.005000000352780149  0.0008116132965799976  0.9997423195326606  1.0000
  Ge  Ge6       1.0  1.0000000385594599e-10  0.004183435213865312  0.9994293153570626  1.0000
  Ge  Ge7       1.0  0.009999999903787233  0.005587455850688114  0.9995956000945923  1.0000
  Ge  Ge8       1.0  0.005000000352780149  0.009280047619943605  0.9996316819769776  1.0000
