data_image0
_chemical_formula_structural       In2Sb2H
_chemical_formula_sum              "In2 Sb2 H1"
_cell_length_a       4.7402143478393555
_cell_length_b       4.74021424965938
_cell_length_c       101.24518585205078
_cell_angle_alpha    90.0
_cell_angle_beta     90.0
_cell_angle_gamma    120.00000068515203

_space_group_name_H-M_alt    "P 1"
_space_group_IT_number       1

loop_
  _space_group_symop_operation_xyz
  'x, y, z'

loop_
  _atom_site_type_symbol
  _atom_site_label
  _atom_site_symmetry_multiplicity
  _atom_site_fract_x
  _atom_site_fract_y
  _atom_site_fract_z
  _atom_site_occupancy
  In  In1       1.0  0.006666663313686006  0.002499985435131834  0.9996835157831232  1.0000
  In  In2       1.0  0.0033332816811932685  0.005833295945634366  7.715238844560104e-05  1.0000
  Sb  Sb1       1.0  0.006666718533418107  0.0025000149278555346  0.0  1.0000
  Sb  Sb2       1.0  0.0033333299426869752  0.005833319086079115  0.9995864491982689  1.0000
  H   H1        1.0  0.00666671879795091  0.007500015063975797  0.00014815563992790276  1.0000
