data_image0
_chemical_formula_structural       COCo8Sb16Co8Sb16
_chemical_formula_sum              "C1 O1 Co16 Sb32"
_cell_length_a       11.795004794926548
_cell_length_b       6.456658840179443
_cell_length_c       109.48698425292969
_cell_angle_alpha    90.0
_cell_angle_beta     92.55581380563916
_cell_angle_gamma    90.0

_space_group_name_H-M_alt    "P 1"
_space_group_IT_number       1

loop_
  _space_group_symop_operation_xyz
  'x, y, z'

loop_
  _atom_site_type_symbol
  _atom_site_label
  _atom_site_symmetry_multiplicity
  _atom_site_fract_x
  _atom_site_fract_y
  _atom_site_fract_z
  _atom_site_occupancy
  C   C1        1.0  0.008688147810605928  0.006774372267245273  0.9999913254723781  1.0000
  O   O1        1.0  0.008688147810605928  0.006774372267245273  0.00010092776346852782  1.0000
  Co  Co1       1.0  0.0014132918913815665  7.445000055742393e-06  2.4167695311193283e-05  1.0000
  Co  Co2       1.0  0.0064132919925498095  7.445000055742393e-06  0.999723621970928  1.0000
  Co  Co3       1.0  0.001086708001127176  0.005007444743011662  0.9997286944626058  1.0000
  Co  Co4       1.0  0.0060867076280692834  0.005007444743011662  2.9240218346857865e-05  1.0000
  Co  Co5       1.0  0.003586707893635919  0.009992555026200844  0.9998789676130557  1.0000
  Co  Co6       1.0  0.008586707678653405  0.009992555026200844  0.9995784218871537  1.0000
  Co  Co7       1.0  0.00391329162581493  0.004992554910807095  0.9995733493625992  1.0000
  Co  Co8       1.0  0.008913291410832417  0.004992554910807095  0.9998738951190997  1.0000
  Sb  Sb1       1.0  0.000831908511423837  0.006443810145529056  0.9999423198067219  1.0000
  Sb  Sb2       1.0  0.005831908454516701  0.006443810145529056  0.9996417740815793  1.0000
  Sb  Sb3       1.0  0.0016680913810849056  0.0014438100301353081  0.9998105428955946  1.0000
  Sb  Sb4       1.0  0.0066680911661023915  0.0014438100301353081  0.9995099971696925  1.0000
  Sb  Sb5       1.0  0.00416809111551827  0.003556189796774071  0.9999608155008857  1.0000
  Sb  Sb6       1.0  0.009168091216686512  0.003556189796774071  0.9996602697765025  1.0000
  Sb  Sb7       1.0  0.00333190840393258  0.008556189623683451  0.9994915014747693  1.0000
  Sb  Sb8       1.0  0.008331908505100823  0.008556189623683451  0.9997920466883892  1.0000
  Sb  Sb9       1.0  0.0018509675219794079  0.0035970051422223323  0.9995236442965284  1.0000
  Sb  Sb10      1.0  0.0068509673069968935  0.0035970051422223323  0.9998241900530288  1.0000
  Sb  Sb11      1.0  0.0006490324495670242  0.008597004969131712  0.9996281269237652  1.0000
  Sb  Sb12      1.0  0.005649032313622199  0.008597004969131712  0.9999286726806453  1.0000
  Sb  Sb13      1.0  0.003149032263038078  0.0064029948000807945  0.999778399529436  1.0000
  Sb  Sb14      1.0  0.00814903236420632  0.0064029948000807945  0.9994778543494522  1.0000
  Sb  Sb15      1.0  0.004350967572563529  0.001402994828929231  0.9996739169033383  1.0000
  Sb  Sb16      1.0  0.009350967357581015  0.001402994828929231  0.9999744626598388  1.0000
  Co  Co9       1.0  0.0014132918913815665  7.445000055742393e-06  0.9994230767573081  1.0000
  Co  Co10      1.0  0.0064132919925498095  7.445000055742393e-06  0.9991225310329249  1.0000
  Co  Co11      1.0  0.001086708001127176  0.005007444743011662  0.9991276035246027  1.0000
  Co  Co12      1.0  0.0060867076280692834  0.005007444743011662  0.9994281492803437  1.0000
  Co  Co13      1.0  0.003586707893635919  0.009992555026200844  0.9992778761306533  1.0000
  Co  Co14      1.0  0.008586707678653405  0.009992555026200844  0.9989773309491506  1.0000
  Co  Co15      1.0  0.00391329162581493  0.004992554910807095  0.9989722584245962  1.0000
  Co  Co16      1.0  0.008913291410832417  0.004992554910807095  0.9992728041810967  1.0000
  Sb  Sb17      1.0  0.000831908511423837  0.006443810145529056  0.9993412288687188  1.0000
  Sb  Sb18      1.0  0.005831908454516701  0.006443810145529056  0.9990406831435762  1.0000
  Sb  Sb19      1.0  0.0016680913810849056  0.0014438100301353081  0.9992094514131921  1.0000
  Sb  Sb20      1.0  0.0066680911661023915  0.0014438100301353081  0.9989089062316895  1.0000
  Sb  Sb21      1.0  0.00416809111551827  0.003556189796774071  0.9993597245628826  1.0000
  Sb  Sb22      1.0  0.009168091216686512  0.003556189796774071  0.9990591788384994  1.0000
  Sb  Sb23      1.0  0.00333190840393258  0.008556189623683451  0.9988904105367663  1.0000
  Sb  Sb24      1.0  0.008331908505100823  0.008556189623683451  0.9991909557503861  1.0000
  Sb  Sb25      1.0  0.0018509675219794079  0.0035970051422223323  0.9989225533585253  1.0000
  Sb  Sb26      1.0  0.0068509673069968935  0.0035970051422223323  0.9992230991150258  1.0000
  Sb  Sb27      1.0  0.0006490324495670242  0.008597004969131712  0.9990270359857621  1.0000
  Sb  Sb28      1.0  0.005649032313622199  0.008597004969131712  0.9993275817426422  1.0000
  Sb  Sb29      1.0  0.003149032263038078  0.0064029948000807945  0.9991773085914329  1.0000
  Sb  Sb30      1.0  0.00814903236420632  0.0064029948000807945  0.9988767631392494  1.0000
  Sb  Sb31      1.0  0.004350967572563529  0.001402994828929231  0.9990728259653353  1.0000
  Sb  Sb32      1.0  0.009350967357581015  0.001402994828929231  0.9993733717218357  1.0000
