data_image0
_chemical_formula_structural       HRh12Sn6Ti6
_chemical_formula_sum              "H1 Rh12 Sn6 Ti6"
_cell_length_a       7.820429500079947
_cell_length_b       6.385354042053223
_cell_length_c       104.38618469238281
_cell_angle_alpha    90.0
_cell_angle_beta     85.6522468614698
_cell_angle_gamma    114.09484292872295

_space_group_name_H-M_alt    "P 1"
_space_group_IT_number       1

loop_
  _space_group_symop_operation_xyz
  'x, y, z'

loop_
  _atom_site_type_symbol
  _atom_site_label
  _atom_site_symmetry_multiplicity
  _atom_site_fract_x
  _atom_site_fract_y
  _atom_site_fract_z
  _atom_site_occupancy
  H   H1        1.0  0.002655589034796516  0.0015368591179254344  9.252895473817226e-05  1.0000
  Rh  Rh1       1.0  0.004791666792337396  0.00010416668866321207  0.9993186133685971  1.0000
  Rh  Rh2       1.0  0.006458333479949185  0.005937500108312628  0.9995931246801565  1.0000
  Rh  Rh3       1.0  0.00833652652185243  0.0019096440553899537  0.9998569634217147  1.0000
  Rh  Rh4       1.0  0.00833611337932815  0.006842333399633518  0.9998569817562089  1.0000
  Rh  Rh5       1.0  0.004791666792337396  0.005104166764506733  0.9993186133685971  1.0000
  Rh  Rh6       1.0  0.006458333479949185  0.0009375001783220329  0.9995931246801565  1.0000
  Rh  Rh7       1.0  0.003886044502971258  0.004508979535256635  0.9999780563986147  1.0000
  Rh  Rh8       1.0  0.0006250000078544206  0.003020833372265246  0.9994558691050456  1.0000
  Rh  Rh9       1.0  0.0023246330733055127  0.008828774584627755  0.9997253373879719  1.0000
  Rh  Rh10      1.0  0.0023261649471392047  0.0039142052984054  0.9997255039850295  1.0000
  Rh  Rh11      1.0  0.0038821374523439834  0.009792326516071788  0.9999779512555697  1.0000
  Rh  Rh12      1.0  0.0006250000078544206  0.008020833593961694  0.9994558691050456  1.0000
  Sn  Sn1       1.0  0.0035416666457215445  0.001979166671508663  0.999524496607658  1.0000
  Sn  Sn2       1.0  0.0054197869033271034  0.007920015525289101  0.9998047337772743  1.0000
  Sn  Sn3       1.0  0.0018750000890167668  0.006145833377841716  0.9992499858663563  1.0000
  Sn  Sn4       1.0  0.009374999790548783  0.004895833243922282  0.9996617521846277  1.0000
  Sn  Sn5       1.0  0.0008051268103119972  0.0006125425582280057  0.9999657694459219  1.0000
  Sn  Sn6       1.0  0.0077083336265650355  0.00906250014661585  0.9993872411555949  1.0000
  Ti  Ti1       1.0  0.0035416666457215445  0.006979166656194106  0.999524496607658  1.0000
  Ti  Ti2       1.0  0.005194901750455866  0.002806053924168782  0.9998105870251214  1.0000
  Ti  Ti3       1.0  0.0018750000890167668  0.001145833393156274  0.9992499858663563  1.0000
  Ti  Ti4       1.0  0.009374999790548783  0.009895833228607724  0.9996617521846277  1.0000
  Ti  Ti5       1.0  0.0012815843427876595  0.00584856134560695  0.9999208452661703  1.0000
  Ti  Ti6       1.0  0.0077083336265650355  0.004062500216625256  0.9993872411555949  1.0000
