data_image0
_chemical_formula_structural       HCo6Sn6Co6Sn6
_chemical_formula_sum              "H1 Co12 Sn12"
_cell_length_a       5.334482192993164
_cell_length_b       11.487303633903938
_cell_length_c       35.935272216796875
_cell_angle_alpha    111.75743864051373
_cell_angle_beta     90.0
_cell_angle_gamma    62.32985011201678

_space_group_name_H-M_alt    "P 1"
_space_group_IT_number       1

loop_
  _space_group_symop_operation_xyz
  'x, y, z'

loop_
  _atom_site_type_symbol
  _atom_site_label
  _atom_site_symmetry_multiplicity
  _atom_site_fract_x
  _atom_site_fract_y
  _atom_site_fract_z
  _atom_site_occupancy
  H   H1        1.0  0.00179532361480995  0.004068233054094389  0.000701311120325791  1.0000
  Co  Co1       1.0  0.005155593649543761  0.005708647533699262  0.0005754318670860336  1.0000
  Co  Co2       1.0  0.00507849479276461  0.0007854508523554467  1.966599067657019e-05  1.0000
  Co  Co3       1.0  0.0052383455492247604  0.003283922214795255  0.00031004394584344477  1.0000
  Co  Co4       1.0  0.0053588056620661175  0.007953755177445397  0.0008424909925616788  1.0000
  Co  Co5       1.0  0.009921506244471962  0.003283339608653302  0.0003094304534934126  1.0000
  Co  Co6       1.0  0.000474549252075144  0.007951769881498701  0.0008422665295185312  1.0000
  Sn  Sn1       1.0  0.0032051171266278115  0.002648514014531476  0.0008167502966739312  1.0000
  Sn  Sn2       1.0  0.0033946124064923775  0.007471267784252061  0.00020557971708069444  1.0000
  Sn  Sn3       1.0  0.006745161870579255  0.004118783914209102  0.9998221771327918  1.0000
  Sn  Sn4       1.0  0.006651683558135778  0.009214548736393158  0.00046059658474607634  1.0000
  Sn  Sn5       1.0  0.00022927493707942769  0.005634256591530897  0.000667621967260019  1.0000
  Sn  Sn6       1.0  7.849456580362228e-05  0.0007854508523554467  1.966599067657019e-05  1.0000
  Co  Co7       1.0  0.005078495037261697  0.00578545074752666  0.9994271989869196  1.0000
  Co  Co8       1.0  0.00507849479276461  0.0007854508523554467  0.9988347322236324  1.0000
  Co  Co9       1.0  0.005078494666639313  0.003285450699144143  0.9991309655933323  1.0000
  Co  Co10      1.0  0.005078494414388721  0.008285450392721536  0.999723432332732  1.0000
  Co  Co11      1.0  7.849487614176356e-05  0.003285450699144143  0.9991309655933323  1.0000
  Co  Co12      1.0  7.849497306192114e-05  0.008285450392721536  0.999723432332732  1.0000
  Sn  Sn7       1.0  0.003411828161040872  0.0024521174840791845  0.9996246882355836  1.0000
  Sn  Sn8       1.0  0.0034118286071317797  0.007452117177656576  0.9990322212079391  1.0000
  Sn  Sn9       1.0  0.006745161870579255  0.004118783914209102  0.9986372433657476  1.0000
  Sn  Sn10      1.0  0.006745162316670165  0.009118783607786493  0.9992297101051473  1.0000
  Sn  Sn11      1.0  7.849489759339673e-05  0.00578545074752666  0.9994271989869196  1.0000
  Sn  Sn12      1.0  7.849456580362228e-05  0.0007854508523554467  0.9988347322236324  1.0000
