data_image0
_chemical_formula_structural       COAl24W6
_chemical_formula_sum              "C1 O1 Al24 W6"
_cell_length_a       5.244442044365932
_cell_length_b       9.302099672704761
_cell_length_c       35.038795471191406
_cell_angle_alpha    91.52077360625692
_cell_angle_beta     91.17460566994981
_cell_angle_gamma    87.17445415020876

_space_group_name_H-M_alt    "P 1"
_space_group_IT_number       1

loop_
  _space_group_symop_operation_xyz
  'x, y, z'

loop_
  _atom_site_type_symbol
  _atom_site_label
  _atom_site_symmetry_multiplicity
  _atom_site_fract_x
  _atom_site_fract_y
  _atom_site_fract_z
  _atom_site_occupancy
  C   C1        1.0  0.0026963982733429668  0.002274004205139463  0.00037853772643403643  1.0000
  O   O1        1.0  0.0026963982733429668  0.002274004205139463  0.0007210155215797108  1.0000
  Al  Al1       1.0  0.009417406829417543  0.004722203634495872  0.999195445268669  1.0000
  Al  Al2       1.0  0.005399298019433364  0.0042504269244390235  0.99970484710473  1.0000
  Al  Al3       1.0  0.000468797486351586  0.0030264076297095077  0.9998314421044124  1.0000
  Al  Al4       1.0  0.001484708196464463  0.005928757561416486  1.4375375917898846e-06  1.0000
  Al  Al5       1.0  0.0047968598050795765  0.0014262487927301148  0.9999364552479022  1.0000
  Al  Al6       1.0  0.006737331083727211  0.007392773647755048  0.99889090898952  1.0000
  Al  Al7       1.0  0.002498766066259311  0.002376207330851811  0.9990717198116084  1.0000
  Al  Al8       1.0  0.002020571463521761  0.007168306930925372  0.99936081233438  1.0000
  Al  Al9       1.0  0.00954725481703932  0.009603788777672997  0.9996755081710541  1.0000
  Al  Al10      1.0  0.0004527453540826521  0.009743694620376641  0.9988752494850454  1.0000
  Al  Al11      1.0  0.003918365102439546  0.008593039576991935  7.256626547478515e-05  1.0000
  Al  Al12      1.0  0.004870385121578503  0.009480822865707025  0.9993697153612692  1.0000
  Al  Al13      1.0  0.0008459783539417156  0.0061507751799584265  0.997770037390304  1.0000
  Al  Al14      1.0  0.006716978013366319  0.0056395766511642565  0.998280103859615  1.0000
  Al  Al15      1.0  0.0019549278882858407  0.003988476890677566  0.9983933085096164  1.0000
  Al  Al16      1.0  0.0017352645877154274  0.006844101027260118  0.9986124856678422  1.0000
  Al  Al17      1.0  0.007075239610404275  0.002999966713762086  0.9985537488228693  1.0000
  Al  Al18      1.0  0.008165902889717701  0.008821345594314604  0.9974655008979539  1.0000
  Al  Al19      1.0  0.003927337551707061  0.003804778876314366  0.9976463119288708  1.0000
  Al  Al20      1.0  0.003574480822133335  0.008391915101228924  0.997998387235535  1.0000
  Al  Al21      1.0  0.0011242573872434216  0.0010140376947175127  0.9982052244384201  1.0000
  Al  Al22      1.0  0.0018813167055137436  0.0011722659492468155  0.9974498415876123  1.0000
  Al  Al23      1.0  0.005564495155985985  0.0002563055210100513  0.9986648353409587  1.0000
  Al  Al24      1.0  0.006279111688588648  0.0009662931132107003  0.9979518014607578  1.0000
  W   W1        1.0  0.004440498869449475  0.004944188363083735  0.9989739520489381  1.0000
  W   W2        1.0  0.007481304664103888  0.0019320507619251465  0.9992954958431743  1.0000
  W   W3        1.0  0.007099463487280821  0.006934463368407737  0.9996518361991251  1.0000
  W   W4        1.0  0.005869070354897226  0.00637275990854629  0.9975485441662005  1.0000
  W   W5        1.0  0.00896690027006275  0.003343868886755466  0.9978366412108819  1.0000
  W   W6        1.0  0.008575449517245367  0.008432727523268502  0.9982272251562614  1.0000
