data_image0
_chemical_formula_structural       HAl3Co3Fe3V3Al3Co3Fe3V3Al3Co3Fe3V3Al3Co3Fe3V3
_chemical_formula_sum              "H1 Al12 Co12 Fe12 V12"
_cell_length_a       8.129644100038178
_cell_length_b       8.129644393920898
_cell_length_c       109.82695770263672
_cell_angle_alpha    90.0
_cell_angle_beta     90.0
_cell_angle_gamma    120.00000119581647

_space_group_name_H-M_alt    "P 1"
_space_group_IT_number       1

loop_
  _space_group_symop_operation_xyz
  'x, y, z'

loop_
  _atom_site_type_symbol
  _atom_site_label
  _atom_site_symmetry_multiplicity
  _atom_site_fract_x
  _atom_site_fract_y
  _atom_site_fract_z
  _atom_site_occupancy
  H   H1        1.0  0.0033333331851784424  0.00333333322106961  0.00011218118712721615  1.0000
  Al  Al1       1.0  0.0008333333624351869  0.0008333333383376907  0.0  1.0000
  Al  Al2       1.0  0.0025000000211649843  0.004166666524504048  0.9993956107206695  1.0000
  Al  Al3       1.0  0.004166666613754206  0.0025000000212766164  0.9996978053603348  1.0000
  Co  Co1       1.0  0.0025000000211649843  0.004166666524504048  0.999622256836097  1.0000
  Co  Co2       1.0  0.004166666613754206  0.0025000000212766164  0.9999244514757623  1.0000
  Co  Co3       1.0  0.0008333333624351869  0.0008333333383376907  0.9993200621964318  1.0000
  Fe  Fe1       1.0  0.0008333333624351869  0.0008333333383376907  0.9997733538845726  1.0000
  Fe  Fe2       1.0  0.0025000000211649843  0.004166666524504048  0.9991689646052421  1.0000
  Fe  Fe3       1.0  0.004166666613754206  0.0025000000212766164  0.9994711592449073  1.0000
  V   V1        1.0  0.0025000000211649843  0.004166666524504048  0.9998489029515245  1.0000
  V   V2        1.0  0.004166666613754206  0.0025000000212766164  0.9992445131294798  1.0000
  V   V3        1.0  0.0008333333624351869  0.0008333333383376907  0.9995467077691451  1.0000
  Al  Al4       1.0  0.0008333333624351869  0.00583333319513915  0.0  1.0000
  Al  Al5       1.0  0.0025000000211649843  0.009166666066268717  0.9993956107206695  1.0000
  Al  Al6       1.0  0.004166666613754206  0.0074999998207986585  0.9996978053603348  1.0000
  Co  Co4       1.0  0.0025000000211649843  0.009166666066268717  0.999622256836097  1.0000
  Co  Co5       1.0  0.004166666613754206  0.0074999998207986585  0.9999244514757623  1.0000
  Co  Co6       1.0  0.0008333333624351869  0.00583333319513915  0.9993200621964318  1.0000
  Fe  Fe4       1.0  0.0008333333624351869  0.00583333319513915  0.9997733538845726  1.0000
  Fe  Fe5       1.0  0.0025000000211649843  0.009166666066268717  0.9991689646052421  1.0000
  Fe  Fe6       1.0  0.004166666613754206  0.0074999998207986585  0.9994711592449073  1.0000
  V   V4        1.0  0.0025000000211649843  0.009166666066268717  0.9998489029515245  1.0000
  V   V5        1.0  0.004166666613754206  0.0074999998207986585  0.9992445131294798  1.0000
  V   V6        1.0  0.0008333333624351869  0.00583333319513915  0.9995467077691451  1.0000
  Al  Al7       1.0  0.005833333206343427  0.0008333333462109351  0.0  1.0000
  Al  Al8       1.0  0.007500000063494953  0.004166666631588157  0.9993956107206695  1.0000
  Al  Al9       1.0  0.00916666692064648  0.002500000203362461  0.9996978053603348  1.0000
  Co  Co7       1.0  0.007500000063494953  0.004166666631588157  0.999622256836097  1.0000
  Co  Co8       1.0  0.00916666692064648  0.002500000203362461  0.9999244514757623  1.0000
  Co  Co9       1.0  0.005833333206343427  0.0008333333462109351  0.9993200621964318  1.0000
  Fe  Fe7       1.0  0.005833333206343427  0.0008333333462109351  0.9997733538845726  1.0000
  Fe  Fe8       1.0  0.007500000063494953  0.004166666631588157  0.9991689646052421  1.0000
  Fe  Fe9       1.0  0.00916666692064648  0.002500000203362461  0.9994711592449073  1.0000
  V   V7        1.0  0.007500000063494953  0.004166666631588157  0.9998489029515245  1.0000
  V   V8        1.0  0.00916666692064648  0.002500000203362461  0.9992445131294798  1.0000
  V   V9        1.0  0.005833333206343427  0.0008333333462109351  0.9995467077691451  1.0000
  Al  Al10      1.0  0.005833333206343427  0.0058333331170932696  0.0  1.0000
  Al  Al11      1.0  0.007500000063494953  0.009166666545669031  0.9993956107206695  1.0000
  Al  Al12      1.0  0.00916666692064648  0.007499999974244795  0.9996978053603348  1.0000
  Co  Co10      1.0  0.007500000063494953  0.009166666545669031  0.999622256836097  1.0000
  Co  Co11      1.0  0.00916666692064648  0.007499999974244795  0.9999244514757623  1.0000
  Co  Co12      1.0  0.005833333206343427  0.0058333331170932696  0.9993200621964318  1.0000
  Fe  Fe10      1.0  0.005833333206343427  0.0058333331170932696  0.9997733538845726  1.0000
  Fe  Fe11      1.0  0.007500000063494953  0.009166666545669031  0.9991689646052421  1.0000
  Fe  Fe12      1.0  0.00916666692064648  0.007499999974244795  0.9994711592449073  1.0000
  V   V10       1.0  0.007500000063494953  0.009166666545669031  0.9998489029515245  1.0000
  V   V11       1.0  0.00916666692064648  0.007499999974244795  0.9992445131294798  1.0000
  V   V12       1.0  0.005833333206343427  0.0058333331170932696  0.9995467077691451  1.0000
