data_image0
_chemical_formula_structural       HFe14W12
_chemical_formula_sum              "H1 Fe14 W12"
_cell_length_a       4.753826141357422
_cell_length_b       9.037093351713521
_cell_length_c       98.76510620117188
_cell_angle_alpha    98.06519006690819
_cell_angle_beta     90.0
_cell_angle_gamma    105.24918140199036

_space_group_name_H-M_alt    "P 1"
_space_group_IT_number       1

loop_
  _space_group_symop_operation_xyz
  'x, y, z'

loop_
  _atom_site_type_symbol
  _atom_site_label
  _atom_site_symmetry_multiplicity
  _atom_site_fract_x
  _atom_site_fract_y
  _atom_site_fract_z
  _atom_site_occupancy
  H   H1        1.0  0.006468370131944943  0.0029635116774096863  0.00016147123544446302  1.0000
  Fe  Fe1       1.0  0.002889587951199068  0.005810534853198689  0.9998839875028885  1.0000
  Fe  Fe2       1.0  0.0015445100463955534  0.008224725893515637  0.9999102049087653  1.0000
  Fe  Fe3       1.0  0.003698249278997306  0.007426013609016796  0.9997027602100985  1.0000
  Fe  Fe4       1.0  0.0066499701162053984  0.008224257761225694  0.9999102236425549  1.0000
  Fe  Fe5       1.0  0.009197660135475237  0.0033639560976763167  0.9998374267805755  1.0000
  Fe  Fe6       1.0  0.004134738911481877  0.0033630507108258884  0.9998374332626002  1.0000
  Fe  Fe7       1.0  0.001884848574567762  0.003801037699691761  4.8795998817531284e-05  1.0000
  Fe  Fe8       1.0  0.007131304540025792  0.004292124018670345  0.9994576043273751  1.0000
  Fe  Fe9       1.0  0.005834412988673282  0.006713958916489124  0.9994953760835206  1.0000
  Fe  Fe10      1.0  0.007983963672736067  0.005997442284090893  0.9992866920720996  1.0000
  Fe  Fe11      1.0  0.0008500310910703339  0.006713958916489124  0.9994953760835206  1.0000
  Fe  Fe12      1.0  0.003412577874926325  0.001870288688995211  0.9994198328674352  1.0000
  Fe  Fe13      1.0  0.00842819567954002  0.001870288688995211  0.9994198328674352  1.0000
  Fe  Fe14      1.0  0.006278645299351429  0.0025868055373216205  0.9996285165798786  1.0000
  W   W1        1.0  0.0004958453543977487  0.0010213155582477903  0.9999349146111475  1.0000
  W   W2        1.0  0.005212726189327576  0.0004535763555342233  0.999804683826341  1.0000
  W   W3        1.0  0.007831030793867879  0.005696212543059878  0.9999867918420271  1.0000
  W   W4        1.0  0.007808970294994171  0.005647455528607104  0.9997291151701119  1.0000
  W   W5        1.0  0.00632237705607967  0.0026715247420387245  3.484138663699632e-05  1.0000
  W   W6        1.0  0.009279447665140701  0.008588410268900162  0.9996862879089494  1.0000
  W   W7        1.0  0.0047584540924346195  0.009546423134875276  0.9995267132422422  1.0000
  W   W8        1.0  0.009504154619163988  0.009037824176946737  0.9993884957652936  1.0000
  W   W9        1.0  0.0021679242258985476  0.004365363401803133  0.9996021616170931  1.0000
  W   W10       1.0  0.0020946846268375817  0.004218884203681201  0.9993130470321131  1.0000
  W   W11       1.0  0.000697446751261901  0.0014244085535459869  0.9996449891786191  1.0000
  W   W12       1.0  0.0035651622634203625  0.007159839375830615  0.9992702197764946  1.0000
