data_image0
_chemical_formula_structural       HCu4Rh8Si4Cu4Rh8Si4Cu4Rh8Si4Cu4Rh8Si4
_chemical_formula_sum              "H1 Cu16 Rh32 Si16"
_cell_length_a       8.387519836425781
_cell_length_b       8.387519836425781
_cell_length_c       105.5852279663086
_cell_angle_alpha    90.0
_cell_angle_beta     90.0
_cell_angle_gamma    90.0

_space_group_name_H-M_alt    "P 1"
_space_group_IT_number       1

loop_
  _space_group_symop_operation_xyz
  'x, y, z'

loop_
  _atom_site_type_symbol
  _atom_site_label
  _atom_site_symmetry_multiplicity
  _atom_site_fract_x
  _atom_site_fract_y
  _atom_site_fract_z
  _atom_site_occupancy
  H   H1        1.0  0.0016666642890006676  0.003749998703091273  0.00010143070167661336  1.0000
  Cu  Cu1       1.0  1.3499999435233372e-09  0.003750000035531746  0.9991414070647673  1.0000
  Cu  Cu2       1.0  0.002500001208079362  0.0012499999378194446  0.9994222643800427  1.0000
  Cu  Cu3       1.0  0.009999998614261908  0.0037499964823571523  0.9997014524188673  1.0000
  Cu  Cu4       1.0  0.0024999992094186527  0.0012500060448382777  0.0  1.0000
  Rh  Rh1       1.0  0.002500001208079362  0.003750000035531746  0.999000978689388  1.0000
  Rh  Rh2       1.0  0.002500001208079362  0.003750000035531746  0.9992818357224049  1.0000
  Rh  Rh3       1.0  1.3499999435233372e-09  0.0012499999378194446  0.9992818357224049  1.0000
  Rh  Rh4       1.0  1.3499999435233372e-09  0.0012499999378194446  0.999000978689388  1.0000
  Rh  Rh5       1.0  0.002500001208079362  0.003750000035531746  0.9995626924731635  1.0000
  Rh  Rh6       1.0  0.0025000058716210163  0.0037499938174762066  0.9998472976160876  1.0000
  Rh  Rh7       1.0  0.00999999772596826  0.0012500174816190014  0.9998472976160876  1.0000
  Rh  Rh8       1.0  1.3499999435233372e-09  0.0012499999378194446  0.9995626924731635  1.0000
  Si  Si1       1.0  0.002500001208079362  0.0012499999378194446  0.9991414070647673  1.0000
  Si  Si2       1.0  1.3499999435233372e-09  0.003750000035531746  0.9994222643800427  1.0000
  Si  Si3       1.0  0.0025000007639325375  0.0012500013812966233  0.9996953601525644  1.0000
  Si  Si4       1.0  0.009999994172793666  0.003749984490392898  0.9999542289703638  1.0000
  Cu  Cu5       1.0  1.3499999435233372e-09  0.008749999786809523  0.9991414070647673  1.0000
  Cu  Cu6       1.0  0.002500001208079362  0.006249999911170635  0.9994222643800427  1.0000
  Cu  Cu7       1.0  0.009999998614261908  0.00874999623363493  0.9997014524188673  1.0000
  Cu  Cu8       1.0  0.0024999992094186527  0.00625000568507935  0.0  1.0000
  Rh  Rh9       1.0  0.002500001208079362  0.008749999786809523  0.999000978689388  1.0000
  Rh  Rh10      1.0  0.002500001208079362  0.008749999786809523  0.9992818357224049  1.0000
  Rh  Rh11      1.0  1.3499999435233372e-09  0.006249999911170635  0.9992818357224049  1.0000
  Rh  Rh12      1.0  1.3499999435233372e-09  0.006249999911170635  0.999000978689388  1.0000
  Rh  Rh13      1.0  0.002500001208079362  0.008749999786809523  0.9995626924731635  1.0000
  Rh  Rh14      1.0  0.0025000058716210163  0.008749993568753986  0.9998472976160876  1.0000
  Rh  Rh15      1.0  0.00999999772596826  0.00625001723289678  0.9998472976160876  1.0000
  Rh  Rh16      1.0  1.3499999435233372e-09  0.006249999911170635  0.9995626924731635  1.0000
  Si  Si5       1.0  0.002500001208079362  0.006249999911170635  0.9991414070647673  1.0000
  Si  Si6       1.0  1.3499999435233372e-09  0.008749999786809523  0.9994222643800427  1.0000
  Si  Si7       1.0  0.0025000007639325375  0.006250001243611108  0.9996953601525644  1.0000
  Si  Si8       1.0  0.009999994172793666  0.0087499846858175  0.9999542289703638  1.0000
  Cu  Cu9       1.0  0.005000001083718251  0.003750000035531746  0.9991414070647673  1.0000
  Cu  Cu10      1.0  0.00750000095935714  0.0012499999378194446  0.9994222643800427  1.0000
  Cu  Cu11      1.0  0.004999998418837305  0.0037499964823571523  0.9997014524188673  1.0000
  Cu  Cu12      1.0  0.007499999182769843  0.0012500060448382777  0.0  1.0000
  Rh  Rh17      1.0  0.00750000095935714  0.003750000035531746  0.999000978689388  1.0000
  Rh  Rh18      1.0  0.00750000095935714  0.003750000035531746  0.9992818357224049  1.0000
  Rh  Rh19      1.0  0.005000001083718251  0.0012499999378194446  0.9992818357224049  1.0000
  Rh  Rh20      1.0  0.005000001083718251  0.0012499999378194446  0.999000978689388  1.0000
  Rh  Rh21      1.0  0.00750000095935714  0.003750000035531746  0.9995626924731635  1.0000
  Rh  Rh22      1.0  0.007500005400825382  0.0037499938174762066  0.9998472976160876  1.0000
  Rh  Rh23      1.0  0.0049999975305436576  0.0012500174816190014  0.9998472976160876  1.0000
  Rh  Rh24      1.0  0.005000001083718251  0.0012499999378194446  0.9995626924731635  1.0000
  Si  Si9       1.0  0.00750000095935714  0.0012499999378194446  0.9991414070647673  1.0000
  Si  Si10      1.0  0.005000001083718251  0.003750000035531746  0.9994222643800427  1.0000
  Si  Si11      1.0  0.00750000095935714  0.0012500013812966233  0.9996953601525644  1.0000
  Si  Si12      1.0  0.004999993977369064  0.003749984490392898  0.9999542289703638  1.0000
  Cu  Cu13      1.0  0.005000001083718251  0.008749999786809523  0.9991414070647673  1.0000
  Cu  Cu14      1.0  0.00750000095935714  0.006249999911170635  0.9994222643800427  1.0000
  Cu  Cu15      1.0  0.004999998418837305  0.00874999623363493  0.9997014524188673  1.0000
  Cu  Cu16      1.0  0.007499999182769843  0.00625000568507935  0.0  1.0000
  Rh  Rh25      1.0  0.00750000095935714  0.008749999786809523  0.999000978689388  1.0000
  Rh  Rh26      1.0  0.00750000095935714  0.008749999786809523  0.9992818357224049  1.0000
  Rh  Rh27      1.0  0.005000001083718251  0.006249999911170635  0.9992818357224049  1.0000
  Rh  Rh28      1.0  0.005000001083718251  0.006249999911170635  0.999000978689388  1.0000
  Rh  Rh29      1.0  0.00750000095935714  0.008749999786809523  0.9995626924731635  1.0000
  Rh  Rh30      1.0  0.007500005400825382  0.008749993568753986  0.9998472976160876  1.0000
  Rh  Rh31      1.0  0.0049999975305436576  0.00625001723289678  0.9998472976160876  1.0000
  Rh  Rh32      1.0  0.005000001083718251  0.006249999911170635  0.9995626924731635  1.0000
  Si  Si13      1.0  0.00750000095935714  0.006249999911170635  0.9991414070647673  1.0000
  Si  Si14      1.0  0.005000001083718251  0.008749999786809523  0.9994222643800427  1.0000
  Si  Si15      1.0  0.00750000095935714  0.006250001243611108  0.9996953601525644  1.0000
  Si  Si16      1.0  0.004999993977369064  0.0087499846858175  0.9999542289703638  1.0000
