data_image0
_chemical_formula_structural       COCu9Ga21Se36
_chemical_formula_sum              "C1 O1 Cu9 Ga21 Se36"
_cell_length_a       16.651001134413598
_cell_length_b       10.787196085101385
_cell_length_c       102.7337646484375
_cell_angle_alpha    97.01490536833691
_cell_angle_beta     102.70418187133608
_cell_angle_gamma    78.34030119234374

_space_group_name_H-M_alt    "P 1"
_space_group_IT_number       1

loop_
  _space_group_symop_operation_xyz
  'x, y, z'

loop_
  _atom_site_type_symbol
  _atom_site_label
  _atom_site_symmetry_multiplicity
  _atom_site_fract_x
  _atom_site_fract_y
  _atom_site_fract_z
  _atom_site_occupancy
  C   C1        1.0  0.0005618859254418338  0.00259335649739229  0.00021720785179343008  1.0000
  O   O1        1.0  0.0005618859254418338  0.00259335649739229  0.0003340148661159368  1.0000
  Cu  Cu1       1.0  0.0009522518239254316  0.0014261145869025348  0.9993511398562251  1.0000
  Cu  Cu2       1.0  0.008237842504454635  0.007268175342916417  0.9993993589202596  1.0000
  Cu  Cu3       1.0  0.00891677475909636  0.003967253795121828  0.9991889322090176  1.0000
  Cu  Cu4       1.0  0.009952251781017791  0.0014261145416212357  0.9996697670636473  1.0000
  Cu  Cu5       1.0  0.007237842638774203  0.007268175061077328  0.9997179860497393  1.0000
  Cu  Cu6       1.0  0.00791677489341593  0.003967254209179351  0.9995075593474212  1.0000
  Cu  Cu7       1.0  0.008934449908531358  0.0019751673070589086  0.9999435944636692  1.0000
  Cu  Cu8       1.0  0.0064737811596029295  0.00782369003381031  0.9999641333867084  1.0000
  Cu  Cu9       1.0  0.007010215742002792  0.0037581502697926965  0.9998429459263729  1.0000
  Ga  Ga1       1.0  0.0066497990265830965  0.003138033616883399  0.9991429627733179  1.0000
  Ga  Ga2       1.0  0.0016391000717953022  0.008148514932021544  0.9991420491129814  1.0000
  Ga  Ga3       1.0  0.0033051167592257845  0.0023828784091645644  0.9994089405454699  1.0000
  Ga  Ga4       1.0  0.004052437729298429  0.008864536953665179  0.999201158800296  1.0000
  Ga  Ga5       1.0  0.006006963757028197  0.006465191462840293  0.9993577809247914  1.0000
  Ga  Ga6       1.0  0.0086007973000692  0.0005400430623409564  0.9992949905307955  1.0000
  Ga  Ga7       1.0  0.0013711466392631862  0.0046354379480874645  0.9992513840449262  1.0000
  Ga  Ga8       1.0  0.005649799160902666  0.0031380336829926166  0.9994615899072596  1.0000
  Ga  Ga9       1.0  0.000639100031219599  0.008148515394104433  0.999460676245767  1.0000
  Ga  Ga10      1.0  0.002305116660351657  0.002382878539307603  0.9997275679620136  1.0000
  Ga  Ga11      1.0  0.0030524376304243016  0.008864537431756523  0.9995197859312088  1.0000
  Ga  Ga12      1.0  0.005006963891347766  0.0064651911810012066  0.9996764080542712  1.0000
  Ga  Ga13      1.0  0.007600797434388771  0.0005400429544760213  0.9996136176625062  1.0000
  Ga  Ga14      1.0  0.00037114665698590707  0.004635438046213592  0.9995700111751225  1.0000
  Ga  Ga15      1.0  0.004649799295222235  0.0031380334011535285  0.9997802170367394  1.0000
  Ga  Ga16      1.0  0.009639099696819838  0.008148514906942952  0.9997793034371326  1.0000
  Ga  Ga17      1.0  0.00034411755454128194  0.0024596073124513998  4.380668599252986e-05  1.0000
  Ga  Ga18      1.0  0.001886126002404559  0.00888388950047529  0.9998387894729448  1.0000
  Ga  Ga19      1.0  0.0034365139451173823  0.006093208995375839  0.9999584056536087  1.0000
  Ga  Ga20      1.0  0.006472404384017619  0.0005993540300659172  0.9999239672986279  1.0000
  Ga  Ga21      1.0  0.009274613285005352  0.004886104480187838  0.9998917616868742  1.0000
  Se  Se1       1.0  0.0057504880016507574  0.0019269220309646275  0.9992341396171105  1.0000
  Se  Se2       1.0  0.005399338870125274  0.008717536490707473  0.9993410894274033  1.0000
  Se  Se3       1.0  0.0030720049135143155  0.007778199616896312  0.9992863705037942  1.0000
  Se  Se4       1.0  0.004980350427518295  0.005391638056492967  0.9994383589366552  1.0000
  Se  Se5       1.0  0.0006742753182202227  0.0070251915178298945  0.9992281324895548  1.0000
  Se  Se6       1.0  0.0027306634424845992  0.0045886570111331945  0.9993947831117129  1.0000
  Se  Se7       1.0  0.000327884649821943  0.0036862770505540444  0.9993328364370656  1.0000
  Se  Se8       1.0  0.003368026355559063  0.0011946416611319564  0.9991779639480612  1.0000
  Se  Se9       1.0  0.00806324292153779  0.002893510401242398  0.9992878891410963  1.0000
  Se  Se10      1.0  0.0010477481406291267  0.0004267960161802261  0.9991276369503959  1.0000
  Se  Se11      1.0  0.00767276847138838  0.009530265559708487  0.999387393921257  1.0000
  Se  Se12      1.0  0.008396678193474625  0.006218316324129458  0.9991815097589042  1.0000
  Se  Se13      1.0  0.004750488135970327  0.0019269217491255394  0.9995527667465902  1.0000
  Se  Se14      1.0  0.004399339004444843  0.008717536904764994  0.9996597165658069  1.0000
  Se  Se15      1.0  0.002072005047833885  0.007778200030953836  0.9996049976421978  1.0000
  Se  Se16      1.0  0.003980350561837864  0.00539163777465388  0.999756986066135  1.0000
  Se  Se17      1.0  0.009674275566804703  0.007025191566480472  0.9995467597085713  1.0000
  Se  Se18      1.0  0.0017306635768041686  0.004588657077242412  0.9997134105357474  1.0000
  Se  Se19      1.0  0.00932788498585406  0.003686276727243634  0.9996514633643366  1.0000
  Se  Se20      1.0  0.0023680264898786325  0.0011946415532670214  0.999496591079772  1.0000
  Se  Se21      1.0  0.00706324305585736  0.0028935104673516155  0.9996065162750379  1.0000
  Se  Se22      1.0  4.7748151064544524e-05  0.00042679598582679655  0.9994462640786849  1.0000
  Se  Se23      1.0  0.006672768139320556  0.009530265405937042  0.999706021035755  1.0000
  Se  Se24      1.0  0.007396678327794193  0.00621831604229037  0.9995001368883839  1.0000
  Se  Se25      1.0  0.0036860167425761276  0.0023971561532197755  0.9999034848285587  1.0000
  Se  Se26      1.0  0.003194055929235914  0.008294897066340552  1.0731627244319494e-05  1.0000
  Se  Se27      1.0  0.0009684386728896724  0.007927522098055972  0.9999294302449373  1.0000
  Se  Se28      1.0  0.003360281759697992  0.004216061349649799  5.8510814139094865e-05  1.0000
  Se  Se29      1.0  0.008650911558264605  0.007142139003467732  0.9998610821235095  1.0000
  Se  Se30      1.0  0.0006238023498208714  0.0045890135124679885  4.011256942591887e-05  1.0000
  Se  Se31      1.0  0.008306138408794267  0.00402830063202734  0.9999956630884523  1.0000
  Se  Se32      1.0  0.0014117205935360885  0.0012186293318624942  0.9998229416743377  1.0000
  Se  Se33      1.0  0.006006366781164648  0.002918260413719628  0.9999363724944823  1.0000
  Se  Se34      1.0  0.009047748465234753  0.00042679584249370907  0.9997648912975773  1.0000
  Se  Se35      1.0  0.006561866813819227  0.009573204131335089  0.00011180818069737659  1.0000
  Se  Se36      1.0  0.006407435220955095  0.006075248097100005  0.9998117728919678  1.0000
