data_image0
_chemical_formula_structural       HSb4Ir4Sb4Ir4Sb4Ir4Sb4Ir4
_chemical_formula_sum              "H1 Sb16 Ir16"
_cell_length_a       6.947940976808754
_cell_length_b       8.160179039685309
_cell_length_c       111.6876449584961
_cell_angle_alpha    72.9252770980214
_cell_angle_beta     108.07760389489349
_cell_angle_gamma    72.92527850878629

_space_group_name_H-M_alt    "P 1"
_space_group_IT_number       1

loop_
  _space_group_symop_operation_xyz
  'x, y, z'

loop_
  _atom_site_type_symbol
  _atom_site_label
  _atom_site_symmetry_multiplicity
  _atom_site_fract_x
  _atom_site_fract_y
  _atom_site_fract_z
  _atom_site_occupancy
  H   H1        1.0  0.0037560237307401783  0.003129022144936944  3.785518681102482e-05  1.0000
  Sb  Sb1       1.0  0.0018749999190671724  0.00416666702679529  0.9996303932778297  1.0000
  Sb  Sb2       1.0  0.006874999651366282  0.004166667008144163  0.9999414367629113  1.0000
  Sb  Sb3       1.0  0.0010416666562906632  0.0008333333720747919  0.9998895965927694  1.0000
  Sb  Sb4       1.0  0.0060416666998698776  0.0008333334806208301  0.9995785527812294  1.0000
  Ir  Ir1       1.0  0.003958333387288552  0.0024999999870256562  0.9999155166867036  1.0000
  Ir  Ir2       1.0  0.008958333275227713  0.002499999912580434  0.9996044734097574  1.0000
  Ir  Ir3       1.0  0.0014583332876789178  0.0025000000800423625  0.9994489515547463  1.0000
  Ir  Ir4       1.0  0.006458333175618079  0.0025000000055971404  0.9997599950440292  1.0000
  Sb  Sb5       1.0  0.0018749999190671724  0.00416666702679529  0.9990083065116006  1.0000
  Sb  Sb6       1.0  0.006874999651366282  0.004166667008144163  0.9993193499966821  1.0000
  Sb  Sb7       1.0  0.0010416666562906632  0.0008333333720747919  0.9992675092928677  1.0000
  Sb  Sb8       1.0  0.0060416666998698776  0.0008333334806208301  0.9989564662818367  1.0000
  Ir  Ir5       1.0  0.003958333387288552  0.0024999999870256562  0.9992934299204745  1.0000
  Ir  Ir6       1.0  0.008958333275227713  0.002499999912580434  0.998982386376692  1.0000
  Ir  Ir7       1.0  0.0014583332876789178  0.0025000000800423625  0.9988268647885172  1.0000
  Ir  Ir8       1.0  0.006458333175618079  0.0025000000055971404  0.9991379082778001  1.0000
  Sb  Sb9       1.0  0.0018749999190671724  0.00916666714141226  0.999630393584901  1.0000
  Sb  Sb10      1.0  0.006874999651366282  0.009166667122761134  0.9999414370699826  1.0000
  Sb  Sb11      1.0  0.0010416666562906632  0.005833333725477119  0.9998895963610456  1.0000
  Sb  Sb12      1.0  0.0060416666998698776  0.0058333335952378005  0.9995785530883007  1.0000
  Ir  Ir9       1.0  0.003958333387288552  0.0075000005792133385  0.9999155164498572  1.0000
  Ir  Ir10      1.0  0.008958333275227713  0.007500000504768116  0.999604473172911  1.0000
  Ir  Ir11      1.0  0.0014583332876789178  0.0075000001946593335  0.9994489513281449  1.0000
  Ir  Ir12      1.0  0.006458333175618079  0.007500000120214111  0.9997599948174278  1.0000
  Sb  Sb13      1.0  0.0018749999190671724  0.00916666714141226  0.9990083068186719  1.0000
  Sb  Sb14      1.0  0.006874999651366282  0.009166667122761134  0.9993193503037535  1.0000
  Sb  Sb15      1.0  0.0010416666562906632  0.005833333725477119  0.9992675095948165  1.0000
  Sb  Sb16      1.0  0.0060416666998698776  0.0058333335952378005  0.9989564663220716  1.0000
  Ir  Ir13      1.0  0.003958333387288552  0.0075000005792133385  0.9992934296836281  1.0000
  Ir  Ir14      1.0  0.008958333275227713  0.007500000504768116  0.9989823864066819  1.0000
  Ir  Ir15      1.0  0.0014583332876789178  0.0075000001946593335  0.9988268645619158  1.0000
  Ir  Ir16      1.0  0.006458333175618079  0.007500000120214111  0.9991379080511987  1.0000
