data_image0
_chemical_formula_structural       HCu9Au3Cu9Au3
_chemical_formula_sum              "H1 Cu18 Au6"
_cell_length_a       5.40938663482666
_cell_length_b       5.409386558717658
_cell_length_c       109.7507095336914
_cell_angle_alpha    90.0
_cell_angle_beta     90.0
_cell_angle_gamma    59.99999953457467

_space_group_name_H-M_alt    "P 1"
_space_group_IT_number       1

loop_
  _space_group_symop_operation_xyz
  'x, y, z'

loop_
  _atom_site_type_symbol
  _atom_site_label
  _atom_site_symmetry_multiplicity
  _atom_site_fract_x
  _atom_site_fract_y
  _atom_site_fract_z
  _atom_site_occupancy
  H   H1        1.0  0.0016995759072071022  0.0016995772721204846  0.00011498598477120134  1.0000
  Cu  Cu1       1.0  0.008382662352625775  0.008382660327944842  0.999199191384992  1.0000
  Cu  Cu2       1.0  0.0017159950655838397  0.0017159937726074835  0.9989979744653289  1.0000
  Cu  Cu3       1.0  0.005049328093200029  0.005049327249078498  0.9994004088477464  1.0000
  Cu  Cu4       1.0  0.008382661616812668  0.0033826603120406555  0.999199191384992  1.0000
  Cu  Cu5       1.0  0.0017159951127254645  0.00671599378851167  0.9989979744653289  1.0000
  Cu  Cu6       1.0  0.0050493284820295956  4.932704990340846e-05  0.9994004088477464  1.0000
  Cu  Cu7       1.0  0.0033826615537668574  0.008382660327944842  0.999199191384992  1.0000
  Cu  Cu8       1.0  0.006715994831435537  0.0017159937726074835  0.9989979744653289  1.0000
  Cu  Cu9       1.0  4.932832734833223e-05  0.005049327249078498  0.9994004088477464  1.0000
  Au  Au1       1.0  0.006715994878577161  0.00671599378851167  0.9989979744653289  1.0000
  Au  Au2       1.0  4.932839874338838e-05  4.932704990340846e-05  0.9994004088477464  1.0000
  Au  Au3       1.0  0.003382661850960972  0.0033826603120406555  0.999199191384992  1.0000
  Cu  Cu10      1.0  0.008385144755522968  0.00838514694756158  0.9998035693431012  1.0000
  Cu  Cu11      1.0  0.0017159950655838397  0.0017159937726074835  0.9996016257674096  1.0000
  Cu  Cu12      1.0  0.00509862625359108  0.005098628637949151  0.0  1.0000
  Cu  Cu13      1.0  0.008385112423462172  0.0033777642081134866  0.9998035704292836  1.0000
  Cu  Cu14      1.0  0.0017159951127254645  0.00671599378851167  0.9996016257674096  1.0000
  Cu  Cu15      1.0  0.005098708202417572  0.009950673196238734  0.9999999989138176  1.0000
  Cu  Cu16      1.0  0.003377765013038997  0.008385113548769158  0.9998035704292836  1.0000
  Cu  Cu17      1.0  0.006715994831435537  0.0017159937726074835  0.9996016257674096  1.0000
  Cu  Cu18      1.0  0.009950671570333736  0.005098709749302175  0.9999999989138176  1.0000
  Au  Au4       1.0  0.006715994878577161  0.00671599378851167  0.9996016257674096  1.0000
  Au  Au5       1.0  4.934770066124666e-05  4.934865101971253e-05  8.18275514250887e-06  1.0000
  Au  Au6       1.0  0.0033826512973642907  0.0033826559383892665  0.9998024690403257  1.0000
