data_image0
_chemical_formula_structural       HPt24Sb16
_chemical_formula_sum              "H1 Pt24 Sb16"
_cell_length_a       7.033321326785336
_cell_length_b       8.566694275426103
_cell_length_c       110.38624572753906
_cell_angle_alpha    92.67518783941311
_cell_angle_beta     93.05520364984399
_cell_angle_gamma    96.82002541293772

_space_group_name_H-M_alt    "P 1"
_space_group_IT_number       1

loop_
  _space_group_symop_operation_xyz
  'x, y, z'

loop_
  _atom_site_type_symbol
  _atom_site_label
  _atom_site_symmetry_multiplicity
  _atom_site_fract_x
  _atom_site_fract_y
  _atom_site_fract_z
  _atom_site_occupancy
  H   H1        1.0  0.00668652144908871  0.0018661365795151078  0.00011747735437247086  1.0000
  Pt  Pt1       1.0  0.007422788746472244  0.005990437547682792  0.999149138213437  1.0000
  Pt  Pt2       1.0  0.006878755875184745  0.0033821206390069517  3.5610400530662496e-05  1.0000
  Pt  Pt3       1.0  0.004089455107806942  0.0018237710637592256  0.9994540244036334  1.0000
  Pt  Pt4       1.0  0.0007561218933400189  0.007657104623694003  0.9997589101391593  1.0000
  Pt  Pt5       1.0  0.0036491020683247157  0.007137650781478501  0.9990950178317809  1.0000
  Pt  Pt6       1.0  0.0035628450255004987  0.0047344126392309446  0.9999903496114446  1.0000
  Pt  Pt7       1.0  0.0003157688278100612  0.0029709841879090753  0.9993999034829678  1.0000
  Pt  Pt8       1.0  0.006982435452605506  0.008804316980322831  0.9997047894932495  1.0000
  Pt  Pt9       1.0  0.00822602914890937  0.00958476656554219  0.9990756694314686  1.0000
  Pt  Pt10      1.0  0.008072818084180809  0.007342165310309363  0.9999504912042807  1.0000
  Pt  Pt11      1.0  0.004892695726739772  0.0054180997526810425  0.9993805553512266  1.0000
  Pt  Pt12      1.0  0.001559362369520532  0.0012514333784033372  0.9996854410028115  1.0000
  Pt  Pt13      1.0  0.009512528272079865  0.009376655213908021  0.9994733723563684  1.0000
  Pt  Pt14      1.0  0.0028458614006791174  0.0035433217636191036  0.9991684868828308  1.0000
  Pt  Pt15      1.0  0.006179195115118738  0.005209988401046874  0.9997782585470092  1.0000
  Pt  Pt16      1.0  0.003157062289159403  0.0015490236465946557  5.311059086995782e-05  1.0000
  Pt  Pt17      1.0  0.009702611750764019  0.004272377702586253  0.9996556280957524  1.0000
  Pt  Pt18      1.0  0.003035945369187886  0.0084390445154474  0.9993507421685615  1.0000
  Pt  Pt19      1.0  0.006199495513257348  0.00013213795428122  0.999975222640061  1.0000
  Pt  Pt20      1.0  0.006369278799474632  0.0026057108458667614  0.9990458567033534  1.0000
  Pt  Pt21      1.0  0.008035945172283454  0.002189044296155679  0.9998080711910727  1.0000
  Pt  Pt22      1.0  0.0013692786256279078  0.006355710889725106  0.9995031852625269  1.0000
  Pt  Pt23      1.0  0.008035945377955196  0.004689044252297335  0.9988934136080331  1.0000
  Pt  Pt24      1.0  0.004702612237231658  0.0005223775490820484  0.999198299529144  1.0000
  Sb  Sb1       1.0  0.00013962657137520272  0.007389161718977625  0.998985022796302  1.0000
  Sb  Sb2       1.0  0.009927405875684154  0.00488110915155928  0.9999239694958495  1.0000
  Sb  Sb3       1.0  0.006806293417066159  0.0032224949061164776  0.9992899084550868  1.0000
  Sb  Sb4       1.0  0.0034729598893538764  0.009055827917821953  0.9995947941875633  1.0000
  Sb  Sb5       1.0  0.0009322641565402652  0.00573892704876711  0.9992591332421099  1.0000
  Sb  Sb6       1.0  0.004265597462681158  0.009905593861628257  0.9989542475919402  1.0000
  Sb  Sb7       1.0  0.007598930554691926  0.0015722602359059632  0.9995640191693572  1.0000
  Sb  Sb8       1.0  0.0042335938355957175  0.007456540415920256  0.9998832552616509  1.0000
  Sb  Sb9       1.0  0.0009992963695046935  0.000621620319858553  0.9992530022590286  1.0000
  Sb  Sb10      1.0  0.004332629626594878  0.004788286913427979  0.9989481163379157  1.0000
  Sb  Sb11      1.0  0.0076659630758260265  0.00645495355085575  0.9995578882711758  1.0000
  Sb  Sb12      1.0  0.0043729376574904435  0.0023437028522800443  0.9998449428090581  1.0000
  Sb  Sb13      1.0  0.006739260722735497  0.008339801854316755  0.9992960394373278  1.0000
  Sb  Sb14      1.0  7.259421667227735e-05  0.0025064681847361174  0.9989911539642365  1.0000
  Sb  Sb15      1.0  0.00340592756577437  0.004173135041455609  0.9996009256279687  1.0000
  Sb  Sb16      1.0  7.396519991579163e-05  9.440644949187126e-05  0.9999243593423471  1.0000
