data_image0
_chemical_formula_structural       COCa12Au4
_chemical_formula_sum              "C1 O1 Ca12 Au4"
_cell_length_a       6.9137678146362305
_cell_length_b       10.05778980255127
_cell_length_c       101.8939437866211
_cell_angle_alpha    90.0
_cell_angle_beta     90.0
_cell_angle_gamma    90.0

_space_group_name_H-M_alt    "P 1"
_space_group_IT_number       1

loop_
  _space_group_symop_operation_xyz
  'x, y, z'

loop_
  _atom_site_type_symbol
  _atom_site_label
  _atom_site_symmetry_multiplicity
  _atom_site_fract_x
  _atom_site_fract_y
  _atom_site_fract_z
  _atom_site_occupancy
  C   C1        1.0  0.006466321089503975  0.00747539899915203  0.00012761533818084507  1.0000
  O   O1        1.0  0.006466321089503975  0.00747539899915203  0.0002453845035316313  1.0000
  Ca  Ca1       1.0  0.0033272259366743952  0.005612568989462428  0.9994715947694509  1.0000
  Ca  Ca2       1.0  0.008327225893568635  0.004338219363923486  0.9993541110682364  1.0000
  Ca  Ca3       1.0  0.0015220835534313496  0.009393869519351564  0.9998520541166249  1.0000
  Ca  Ca4       1.0  0.006606706854685031  0.0006061300935923893  0.9997329436208143  1.0000
  Ca  Ca5       1.0  0.008519186085467206  0.0074753938137121665  0.9995799254843137  1.0000
  Ca  Ca6       1.0  0.003932869423959437  0.0024754502831522774  0.0  1.0000
  Ca  Ca7       1.0  0.006466321089503975  0.00747539899915203  0.9999576296345992  1.0000
  Ca  Ca8       1.0  0.0013897223297998334  0.0024753941692851854  0.9996370446350975  1.0000
  Ca  Ca9       1.0  0.0033272259366743952  0.009338219378739028  0.9994715947694509  1.0000
  Ca  Ca10      1.0  0.008327225893568635  0.000612569159841166  0.9993541110682364  1.0000
  Ca  Ca11      1.0  0.0015220443541298285  0.005556858845902903  0.9998520652310073  1.0000
  Ca  Ca12      1.0  0.00660668530180447  0.004344694867147016  0.9997329430358469  1.0000
  Au  Au1       1.0  0.009546540238503832  0.0024753397221666212  0.9998946379951604  1.0000
  Au  Au2       1.0  0.004455449187204665  0.0074753938137121665  0.999703950292027  1.0000
  Au  Au3       1.0  0.005453459093356871  0.0024753941692851854  0.9995130198273843  1.0000
  Au  Au4       1.0  0.00045345930484451164  0.0074753938137121665  0.9993126860103031  1.0000
