data_image0
_chemical_formula_structural       COV30Au10
_chemical_formula_sum              "C1 O1 V30 Au10"
_cell_length_a       6.907259941101074
_cell_length_b       10.921337307055062
_cell_length_c       103.8385238647461
_cell_angle_alpha    75.03678267291777
_cell_angle_beta     90.0
_cell_angle_gamma    71.56505188478505

_space_group_name_H-M_alt    "P 1"
_space_group_IT_number       1

loop_
  _space_group_symop_operation_xyz
  'x, y, z'

loop_
  _atom_site_type_symbol
  _atom_site_label
  _atom_site_symmetry_multiplicity
  _atom_site_fract_x
  _atom_site_fract_y
  _atom_site_fract_z
  _atom_site_occupancy
  C   C1        1.0  0.0005488836540011686  0.005516610727690277  0.9998681595095913  1.0000
  O   O1        1.0  0.0005488836540011686  0.005516610727690277  0.9999837237902847  1.0000
  V   V1        1.0  0.007538941252181508  0.0027499998684721912  0.9994137000621138  1.0000
  V   V2        1.0  0.005527478572449489  0.006723161278299164  0.9995762030785096  1.0000
  V   V3        1.0  0.009538941201507705  0.008749999581502426  0.9992507618630031  1.0000
  V   V4        1.0  0.0033873051571983695  0.000828624915529254  0.99972666370924  1.0000
  V   V5        1.0  0.0015389412245036475  0.004749999772815603  0.9990878235820225  1.0000
  V   V6        1.0  0.0006001524630430997  0.0017321367957606531  0.9995746984824377  1.0000
  V   V7        1.0  0.008502345260477233  0.005775736578448016  0.999717098755954  1.0000
  V   V8        1.0  0.0025389411991667463  0.00774999962933072  0.9994136998160423  1.0000
  V   V9        1.0  0.006538942131495717  0.009749999533674131  0.9990878233359511  1.0000
  V   V10       1.0  0.004538941103510157  0.003749999820643897  0.9992507615350618  1.0000
  V   V11       1.0  0.006038941137094676  0.005750000098645856  0.9993322309524113  1.0000
  V   V12       1.0  0.004038941419580538  0.009749999533674131  0.9994951692435391  1.0000
  V   V13       1.0  0.00803894122826736  0.0017499999163004853  0.9991692926815778  1.0000
  V   V14       1.0  0.0019445289512654079  0.0037040088055954896  0.9996653519555627  1.0000
  V   V15       1.0  0.00965085533425845  0.008150838847297935  0.9997786528222434  1.0000
  V   V16       1.0  0.004038941127424305  0.004749999772815603  0.9994951689155976  1.0000
  V   V17       1.0  0.001966689373650282  0.008783107970795661  0.9996536601196887  1.0000
  V   V18       1.0  0.006038941008414057  0.0007500000108360979  0.9993322306333486  1.0000
  V   V19       1.0  0.00031258214221138584  0.0028783881982058076  0.9998008975386274  1.0000
  V   V20       1.0  0.008038942059753276  0.006749999677159014  0.9991692924355065  1.0000
  V   V21       1.0  0.0005389413959186654  0.00424999979672975  0.9993729655123361  1.0000
  V   V22       1.0  0.008537959624487173  0.008216867301976275  0.9995387052508359  1.0000
  V   V23       1.0  0.0025389413002620768  0.00024999998804292644  0.9992100272313555  1.0000
  V   V24       1.0  0.006352718682376897  0.0024118592470339043  0.999710792069558  1.0000
  V   V25       1.0  0.004538941062759001  0.006250000074731709  0.9990470890220977  1.0000
  V   V26       1.0  0.009538941947259677  0.006250000074731709  0.9994544343556728  1.0000
  V   V27       1.0  0.007528309560708455  0.00026276000708707703  0.9996193726136025  1.0000
  V   V28       1.0  0.001538941348090371  0.0022499998923863384  0.9992914960848394  1.0000
  V   V29       1.0  0.005612320459426682  0.00406178948079804  0.999762386819676  1.0000
  V   V30       1.0  0.0035389412974165682  0.008249999605416574  0.9991285578857287  1.0000
  Au  Au1       1.0  0.008046176605144246  0.004241592479402506  0.9995666855127954  1.0000
  Au  Au2       1.0  0.005866396224405579  0.008204329563060792  0.9997446370349518  1.0000
  Au  Au3       1.0  3.894111082252674e-05  0.00024999998804292644  0.9994137001851495  1.0000
  Au  Au4       1.0  0.0040389415206758695  0.0022499998923863384  0.9990878234180518  1.0000
  Au  Au5       1.0  0.0020389414295031837  0.006250000074731709  0.9992507619758917  1.0000
  Au  Au6       1.0  0.008038941913675159  0.00424999979672975  0.9991692925585421  1.0000
  Au  Au7       1.0  0.0060389420093317474  0.008249999605416574  0.9993322308395227  1.0000
  Au  Au8       1.0  0.009961059012342495  0.0003630096996288668  0.9998273439007757  1.0000
  Au  Au9       1.0  0.0040389415206758695  0.0022499998923863384  0.9994951690386333  1.0000
  Au  Au10      1.0  0.0021225885066871743  0.006203152260633019  0.999672527863784  1.0000
