data_image0
_chemical_formula_structural       HAl20Pt10Al20Pt10
_chemical_formula_sum              "H1 Al40 Pt20"
_cell_length_a       8.450458526611328
_cell_length_b       12.675688133301886
_cell_length_c       109.86073303222656
_cell_angle_alpha    92.02486841065748
_cell_angle_beta     90.0
_cell_angle_gamma    90.0

_space_group_name_H-M_alt    "P 1"
_space_group_IT_number       1

loop_
  _space_group_symop_operation_xyz
  'x, y, z'

loop_
  _atom_site_type_symbol
  _atom_site_label
  _atom_site_symmetry_multiplicity
  _atom_site_fract_x
  _atom_site_fract_y
  _atom_site_fract_z
  _atom_site_occupancy
  H   H1        1.0  0.0012507958860256826  0.00567108199536359  6.956489614368862e-06  1.0000
  Al  Al1       1.0  0.001249994661441699  0.008937500169387876  0.9996330627767627  1.0000
  Al  Al2       1.0  0.001249994661441699  0.004437500079988719  0.9994516478086233  1.0000
  Al  Al3       1.0  0.0012501513796478096  0.003439554051502045  0.9998164096133549  1.0000
  Al  Al4       1.0  0.001249994661441699  0.009937499731802527  0.9992702332164993  1.0000
  Al  Al5       1.0  0.0012502796637490143  0.007729708734534792  1.3718681077239686e-06  1.0000
  Al  Al6       1.0  0.001249994661441699  0.0011875000317602268  0.9997237701542923  1.0000
  Al  Al7       1.0  0.001249994661441699  0.006687500418764473  0.9995423555651655  1.0000
  Al  Al8       1.0  0.0012507958860256826  0.005622771161382756  0.9998947115842007  1.0000
  Al  Al9       1.0  0.001249994661441699  0.0021875000352891407  0.9993609405958273  1.0000
  Al  Al10      1.0  0.0012501153410729867  0.009906680548693255  5.3347312750376496e-05  1.0000
  Al  Al11      1.0  0.003749994674666864  0.0016875001070437276  0.9995423553753595  1.0000
  Al  Al12      1.0  0.003749994674666864  0.007187499905895623  0.999360940783835  1.0000
  Al  Al13      1.0  0.003749994674666864  0.006187500343480971  0.9997237703440983  1.0000
  Al  Al14      1.0  0.0037496596371516906  0.0064326022483568055  2.042637458136686e-05  1.0000
  Al  Al15      1.0  0.0037500056956377577  0.0005537104051486047  0.9999122839998007  1.0000
  Al  Al16      1.0  0.003749994674666864  0.009437500244671377  0.9994516479978298  1.0000
  Al  Al17      1.0  0.003749994674666864  0.00493750015527222  0.9992702330296904  1.0000
  Al  Al18      1.0  0.003749994674666864  0.003937500004705219  0.999633062587556  1.0000
  Al  Al19      1.0  0.0037499721918862407  0.0027876418703455504  0.999961824491469  1.0000
  Al  Al20      1.0  0.003749982331179463  0.008436725497460197  0.9998095811637121  1.0000
  Pt  Pt1       1.0  0.001250156228875003  0.001684678593185503  0.9999475550943521  1.0000
  Pt  Pt2       1.0  0.001249994661441699  0.007312499924716499  0.9997691242199717  1.0000
  Pt  Pt3       1.0  0.001249994661441699  0.0038124999858843434  0.9992248796939667  1.0000
  Pt  Pt4       1.0  0.001249994661441699  0.0028125001293935166  0.9995877092530312  1.0000
  Pt  Pt5       1.0  0.001249994661441699  0.0083125000752835  0.9994062941195587  1.0000
  Pt  Pt6       1.0  0.003749994674666864  6.250000022055712e-05  0.9996784168191305  1.0000
  Pt  Pt7       1.0  0.003749994674666864  0.0055625002493765955  0.9994970016868944  1.0000
  Pt  Pt8       1.0  0.003749257151294647  0.0045987632200650405  0.9998688828238542  1.0000
  Pt  Pt9       1.0  0.003749994674666864  0.0010625000129393517  0.9993155867181556  1.0000
  Pt  Pt10      1.0  0.003749921054581293  0.00877162826750155  3.575963174150796e-05  1.0000
  Al  Al21      1.0  0.006249994798101738  0.008937500169387876  0.9996330627767627  1.0000
  Al  Al22      1.0  0.006249994798101738  0.004437500079988719  0.9994516478086233  1.0000
  Al  Al23      1.0  0.006250151736727267  0.003439554051502045  0.9998164096133549  1.0000
  Al  Al24      1.0  0.006249994798101738  0.009937499731802527  0.9992702332164993  1.0000
  Al  Al25      1.0  0.006250280020828471  0.007729708734534792  1.3718681077239686e-06  1.0000
  Al  Al26      1.0  0.006249994798101738  0.0011875000317602268  0.9997237701542923  1.0000
  Al  Al27      1.0  0.006249994798101738  0.006687500418764473  0.9995423555651655  1.0000
  Al  Al28      1.0  0.00625079624310514  0.005622771161382756  0.9998947115842007  1.0000
  Al  Al29      1.0  0.006249994798101738  0.0021875000352891407  0.9993609405958273  1.0000
  Al  Al30      1.0  0.006250115587942735  0.009906680548693255  5.3347312750376496e-05  1.0000
  Al  Al31      1.0  0.008749994921536611  0.0016875001070437276  0.9995423553753595  1.0000
  Al  Al32      1.0  0.008749994921536611  0.007187499905895623  0.999360940783835  1.0000
  Al  Al33      1.0  0.008749994921536611  0.006187500343480971  0.9997237703440983  1.0000
  Al  Al34      1.0  0.00874965988402144  0.0064326022483568055  2.042637458136686e-05  1.0000
  Al  Al35      1.0  0.00875000550166867  0.0005537104051486047  0.9999122839998007  1.0000
  Al  Al36      1.0  0.008749994921536611  0.009437500244671377  0.9994516479978298  1.0000
  Al  Al37      1.0  0.008749994921536611  0.00493750015527222  0.9992702330296904  1.0000
  Al  Al38      1.0  0.008749994921536611  0.003937500004705219  0.999633062587556  1.0000
  Al  Al39      1.0  0.008749972879594824  0.0027876418703455504  0.999961824491469  1.0000
  Al  Al40      1.0  0.00874998257804921  0.008436725497460197  0.9998095811637121  1.0000
  Pt  Pt11      1.0  0.00625015658595446  0.001684678593185503  0.9999475550943521  1.0000
  Pt  Pt12      1.0  0.006249994798101738  0.007312499924716499  0.9997691242199717  1.0000
  Pt  Pt13      1.0  0.006249994798101738  0.0038124999858843434  0.9992248796939667  1.0000
  Pt  Pt14      1.0  0.006249994798101738  0.0028125001293935166  0.9995877092530312  1.0000
  Pt  Pt15      1.0  0.006249994798101738  0.0083125000752835  0.9994062941195587  1.0000
  Pt  Pt16      1.0  0.008749994921536611  6.250000022055712e-05  0.9996784168191305  1.0000
  Pt  Pt17      1.0  0.008749994921536611  0.0055625002493765955  0.9994970016868944  1.0000
  Pt  Pt18      1.0  0.00874925695732556  0.0045987632200650405  0.9998688828238542  1.0000
  Pt  Pt19      1.0  0.008749994921536611  0.0010625000129393517  0.9993155867181556  1.0000
  Pt  Pt20      1.0  0.008749920860612204  0.00877162826750155  3.575963174150796e-05  1.0000
