data_image0
_chemical_formula_structural       HCr2As2Cr2As2Cr2As2Cr2As2Cr2As2Cr2As2Cr2As2Cr2As2
_chemical_formula_sum              "H1 Cr16 As16"
_cell_length_a       7.13510544759767
_cell_length_b       7.135105609893799
_cell_length_c       103.1001968383789
_cell_angle_alpha    90.0
_cell_angle_beta     90.0
_cell_angle_gamma    120.00000075243635

_space_group_name_H-M_alt    "P 1"
_space_group_IT_number       1

loop_
  _space_group_symop_operation_xyz
  'x, y, z'

loop_
  _atom_site_type_symbol
  _atom_site_label
  _atom_site_symmetry_multiplicity
  _atom_site_fract_x
  _atom_site_fract_y
  _atom_site_fract_z
  _atom_site_occupancy
  H   H1        1.0  0.0008281834881635367  0.0008307603734365688  0.00011950043619185456  1.0000
  Cr  Cr1       1.0  0.002505149960721323  0.004169239624731951  0.9996001507218792  1.0000
  Cr  Cr2       1.0  0.0025042671972985687  0.004168802158824875  0.9998757832324432  1.0000
  As  As1       1.0  0.0008281834881635367  0.0008307603734365688  0.0  1.0000
  As  As2       1.0  0.004170961164269369  0.0025021447409462405  0.999733156122607  1.0000
  Cr  Cr3       1.0  0.002505149960721323  0.004169239624731951  0.999065069689502  1.0000
  Cr  Cr4       1.0  0.002505149960721323  0.004169239624731951  0.9993326102056906  1.0000
  As  As3       1.0  0.0008384832739587389  0.000835906252634761  0.9994663804637849  1.0000
  As  As4       1.0  0.004171816647483908  0.0025025729067656424  0.9991988399475963  1.0000
  Cr  Cr5       1.0  0.002505149960721323  0.009169239551636938  0.9996001507218792  1.0000
  Cr  Cr6       1.0  0.0025042671972985687  0.00916880234678348  0.9998757832324432  1.0000
  As  As5       1.0  0.0008281834881635367  0.005830760137183043  0.0  1.0000
  As  As6       1.0  0.004170961164269369  0.007502144798378036  0.999733156122607  1.0000
  Cr  Cr7       1.0  0.002505149960721323  0.009169239551636938  0.999065069689502  1.0000
  Cr  Cr8       1.0  0.002505149960721323  0.009169239551636938  0.9993326102056906  1.0000
  As  As7       1.0  0.0008384832739587389  0.005835906375329962  0.9994663804637849  1.0000
  As  As8       1.0  0.004171816647483908  0.007502573062092547  0.9991988399475963  1.0000
  Cr  Cr9       1.0  0.007505150021009077  0.004169239691423334  0.9996001507218792  1.0000
  Cr  Cr10      1.0  0.007504267408305705  0.004168802268244247  0.9998757832324432  1.0000
  As  As9       1.0  0.005828183473091599  0.0008307603698164041  0.0  1.0000
  As  As10      1.0  0.009170961525995888  0.0025021449583570057  0.999733156122607  1.0000
  Cr  Cr11      1.0  0.007505150021009077  0.004169239691423334  0.999065069689502  1.0000
  Cr  Cr12      1.0  0.007505150021009077  0.004169239691423334  0.9993326102056906  1.0000
  As  As11      1.0  0.005838483635685257  0.0008359064047821218  0.9994663804637849  1.0000
  As  As12      1.0  0.009171817009210426  0.0025025730915447055  0.9991988399475963  1.0000
  Cr  Cr13      1.0  0.007505150021009077  0.00916923974885513  0.9996001507218792  1.0000
  Cr  Cr14      1.0  0.007504267408305705  0.009168802097254127  0.9998757832324432  1.0000
  As  As13      1.0  0.005828183473091599  0.0058307602967213904  0.0  1.0000
  As  As14      1.0  0.009170961525995888  0.007502144885261992  0.999733156122607  1.0000
  Cr  Cr15      1.0  0.007505150021009077  0.00916923974885513  0.999065069689502  1.0000
  Cr  Cr16      1.0  0.007505150021009077  0.00916923974885513  0.9993326102056906  1.0000
  As  As15      1.0  0.005838483635685257  0.005835906462213917  0.9994663804637849  1.0000
  As  As16      1.0  0.009171817009210426  0.007502573148976502  0.9991988399475963  1.0000
