data_image0
_chemical_formula_structural       HCo4Sb4Co4Sb4Co4Sb4Co4Sb4
_chemical_formula_sum              "H1 Co16 Sb16"
_cell_length_a       6.534097557218969
_cell_length_b       7.801914774574626
_cell_length_c       109.20458221435547
_cell_angle_alpha    72.63200267182212
_cell_angle_beta     106.6871073492671
_cell_angle_gamma    72.63200339441045

_space_group_name_H-M_alt    "P 1"
_space_group_IT_number       1

loop_
  _space_group_symop_operation_xyz
  'x, y, z'

loop_
  _atom_site_type_symbol
  _atom_site_label
  _atom_site_symmetry_multiplicity
  _atom_site_fract_x
  _atom_site_fract_y
  _atom_site_fract_z
  _atom_site_occupancy
  H   H1        1.0  0.005218056203156532  0.0014226325898995472  5.511577773342604e-05  1.0000
  Co  Co1       1.0  0.0014583333945542773  0.002500000041743371  0.9994696723978261  1.0000
  Co  Co2       1.0  0.00645833294851597  0.0025000003293893075  0.999768840137681  1.0000
  Co  Co3       1.0  0.003958333171535124  0.0025000000604928642  0.9999184241004865  1.0000
  Co  Co4       1.0  0.008958333053466161  0.0025000002322788577  0.9996192561883158  1.0000
  Sb  Sb1       1.0  0.0010416666284035767  0.0008333333268385707  0.9998934932195641  1.0000
  Sb  Sb2       1.0  0.0060416662643576055  0.0008333335855195212  0.9995943258471213  1.0000
  Sb  Sb3       1.0  0.0018750000787126422  0.004166666785613157  0.9996441866883858  1.0000
  Sb  Sb4       1.0  0.006874999632674335  0.004166666823112144  0.9999433544335754  1.0000
  Co  Co5       1.0  0.0014583333945542773  0.002500000041743371  0.9988713370105986  1.0000
  Co  Co6       1.0  0.00645833294851597  0.0025000003293893075  0.9991705044775498  1.0000
  Co  Co7       1.0  0.003958333171535124  0.0025000000604928642  0.9993200884403554  1.0000
  Co  Co8       1.0  0.008958333053466161  0.0025000002322788577  0.9990209208010883  1.0000
  Sb  Sb5       1.0  0.0010416666284035767  0.0008333333268385707  0.9992951581052401  1.0000
  Sb  Sb6       1.0  0.0060416662643576055  0.0008333335855195212  0.9989959901869901  1.0000
  Sb  Sb7       1.0  0.0018750000787126422  0.004166666785613157  0.9990458515740619  1.0000
  Sb  Sb8       1.0  0.006874999632674335  0.004166666823112144  0.9993450193192515  1.0000
  Co  Co9       1.0  0.0014583333945542773  0.007500000071761005  0.9994696724081021  1.0000
  Co  Co10      1.0  0.00645833294851597  0.0075000001092599905  0.9997688401532917  1.0000
  Co  Co11      1.0  0.003958333171535124  0.007500000590804398  0.9999184241000931  1.0000
  Co  Co12      1.0  0.008958333053466161  0.0075000005124434424  0.9996192561932571  1.0000
  Sb  Sb9       1.0  0.0010416666284035767  0.005833333607003155  0.9998934932245053  1.0000
  Sb  Sb10      1.0  0.0060416662643576055  0.005833333615537155  0.9995943258573973  1.0000
  Sb  Sb11      1.0  0.0018750000787126422  0.009166667065777742  0.9996441866933271  1.0000
  Sb  Sb12      1.0  0.006874999632674335  0.009166667103276727  0.9999433544385167  1.0000
  Co  Co13      1.0  0.0014583333945542773  0.007500000071761005  0.9988713370208746  1.0000
  Co  Co14      1.0  0.00645833294851597  0.0075000001092599905  0.9991705044931605  1.0000
  Co  Co15      1.0  0.003958333171535124  0.007500000590804398  0.9993200884399619  1.0000
  Co  Co16      1.0  0.008958333053466161  0.0075000005124434424  0.9990209208060296  1.0000
  Sb  Sb13      1.0  0.0010416666284035767  0.005833333607003155  0.9992951581101813  1.0000
  Sb  Sb14      1.0  0.0060416662643576055  0.005833333615537155  0.9989959901972661  1.0000
  Sb  Sb15      1.0  0.0018750000787126422  0.009166667065777742  0.9990458515790032  1.0000
  Sb  Sb16      1.0  0.006874999632674335  0.009166667103276727  0.9993450193241927  1.0000
