data_image0
_chemical_formula_structural       COGe12Pt6Ge12Pt6
_chemical_formula_sum              "C1 O1 Ge24 Pt12"
_cell_length_a       13.357325641462802
_cell_length_b       6.007077693939209
_cell_length_c       104.55229187011719
_cell_angle_alpha    90.0
_cell_angle_beta     75.347960814536
_cell_angle_gamma    90.0

_space_group_name_H-M_alt    "P 1"
_space_group_IT_number       1

loop_
  _space_group_symop_operation_xyz
  'x, y, z'

loop_
  _atom_site_type_symbol
  _atom_site_label
  _atom_site_symmetry_multiplicity
  _atom_site_fract_x
  _atom_site_fract_y
  _atom_site_fract_z
  _atom_site_occupancy
  C   C1        1.0  0.0049697009618626005  0.0024999999379849824  0.9998912230082603  1.0000
  O   O1        1.0  0.0049697009618626005  0.0024999999379849824  5.998343205560414e-06  1.0000
  Ge  Ge1       1.0  0.006807716492882133  0.0  0.9997289847245711  1.0000
  Ge  Ge2       1.0  0.003507818027855855  0.00999999975193993  0.9994625814382923  1.0000
  Ge  Ge3       1.0  0.00018181349891952902  0.0  0.9991913447983634  1.0000
  Ge  Ge4       1.0  0.003814129735054781  0.00999999975193993  0.9996984205928154  1.0000
  Ge  Ge5       1.0  0.00045161182066226084  0.0  0.9994243396249728  1.0000
  Ge  Ge6       1.0  0.0071182784455298504  0.0  0.9991489405902502  1.0000
  Ge  Ge7       1.0  0.005989899968547722  0.0024999999379849824  0.9994697642088063  1.0000
  Ge  Ge8       1.0  0.002665050337296527  0.0024999999379849824  0.9991941147749905  1.0000
  Ge  Ge9       1.0  0.009818186906819787  0.0024999999379849824  0.999682715532064  1.0000
  Ge  Ge10      1.0  0.0046350416972370705  0.0024999999379849824  0.999146170895759  1.0000
  Ge  Ge11      1.0  0.0017221855324338513  0.0024999999379849824  0.9997055779115782  1.0000
  Ge  Ge12      1.0  0.00796837538802458  0.0024999999379849824  0.9994215698176638  1.0000
  Pt  Pt1       1.0  0.005316712862660553  0.0  0.9993078420112801  1.0000
  Pt  Pt2       1.0  0.0019833793160077924  0.0  0.9990324433697644  1.0000
  Pt  Pt3       1.0  0.008639105284727978  0.00999999975193993  0.9995880403899997  1.0000
  Pt  Pt4       1.0  0.005308724914926829  0.0024999999379849824  0.9997199908568916  1.0000
  Pt  Pt5       1.0  0.0019833793160077924  0.0024999999379849824  0.9994455415362105  1.0000
  Pt  Pt6       1.0  0.008650046265178565  0.0024999999379849824  0.9991701430611017  1.0000
  Ge  Ge13      1.0  0.006807716492882133  0.004999999875969965  0.9997289847245711  1.0000
  Ge  Ge14      1.0  0.003507818027855855  0.004999999875969965  0.9994625814382923  1.0000
  Ge  Ge15      1.0  0.00018181349891952902  0.004999999875969965  0.9991913447983634  1.0000
  Ge  Ge16      1.0  0.003814129735054781  0.004999999875969965  0.9996984205928154  1.0000
  Ge  Ge17      1.0  0.00045161182066226084  0.004999999875969965  0.9994243396249728  1.0000
  Ge  Ge18      1.0  0.0071182784455298504  0.004999999875969965  0.9991489405902502  1.0000
  Ge  Ge19      1.0  0.005989899968547722  0.007500000124030036  0.9994697642088063  1.0000
  Ge  Ge20      1.0  0.002665050337296527  0.007500000124030036  0.9991941147749905  1.0000
  Ge  Ge21      1.0  0.009818186906819787  0.007500000124030036  0.999682715532064  1.0000
  Ge  Ge22      1.0  0.0046350416972370705  0.007500000124030036  0.999146170895759  1.0000
  Ge  Ge23      1.0  0.0017221855324338513  0.007500000124030036  0.9997055779115782  1.0000
  Ge  Ge24      1.0  0.00796837538802458  0.007500000124030036  0.9994215698176638  1.0000
  Pt  Pt7       1.0  0.005316712862660553  0.004999999875969965  0.9993078420112801  1.0000
  Pt  Pt8       1.0  0.0019833793160077924  0.004999999875969965  0.9990324433697644  1.0000
  Pt  Pt9       1.0  0.008639105284727978  0.004999999875969965  0.9995880403899997  1.0000
  Pt  Pt10      1.0  0.005308724914926829  0.007500000124030036  0.9997199908568916  1.0000
  Pt  Pt11      1.0  0.0019833793160077924  0.007500000124030036  0.9994455415362105  1.0000
  Pt  Pt12      1.0  0.008650046265178565  0.007500000124030036  0.9991701430611017  1.0000
