data_image0
_chemical_formula_structural       COAl8Cu4
_chemical_formula_sum              "C1 O1 Al8 Cu4"
_cell_length_a       4.863857746124268
_cell_length_b       4.974408421818583
_cell_length_c       104.71526336669922
_cell_angle_alpha    90.0
_cell_angle_beta     90.0
_cell_angle_gamma    119.2675230249473

_space_group_name_H-M_alt    "P 1"
_space_group_IT_number       1

loop_
  _space_group_symop_operation_xyz
  'x, y, z'

loop_
  _atom_site_type_symbol
  _atom_site_label
  _atom_site_symmetry_multiplicity
  _atom_site_fract_x
  _atom_site_fract_y
  _atom_site_fract_z
  _atom_site_occupancy
  C   C1        1.0  0.002510495843233022  0.0074999844787008215  0.0001364252199907047  1.0000
  O   O1        1.0  0.002510495843233022  0.0074999844787008215  0.0002510219266491461  1.0000
  Al  Al1       1.0  0.009065596697486055  0.008110146666112846  0.9998036264842092  1.0000
  Al  Al2       1.0  0.00408662946424271  0.008152231879034301  0.9993965755691941  1.0000
  Al  Al3       1.0  0.0025105034391999727  0.004999983929274302  0.9999420393745057  1.0000
  Al  Al4       1.0  0.007510516532428185  0.005000006249726661  0.9995272039866665  1.0000
  Al  Al5       1.0  0.007510516532428185  0.005000006249726661  0.9992659468671183  1.0000
  Al  Al6       1.0  0.002510516649588889  0.005000006249726661  0.9996803476655306  1.0000
  Al  Al7       1.0  0.0009344035130054672  0.0018477799765598164  0.9993965755691941  1.0000
  Al  Al8       1.0  0.005955435479404166  0.0018898671210588812  0.9998036264842092  1.0000
  Cu  Cu1       1.0  0.0075105203550354  0.009999994471395646  0.9999999954463452  1.0000
  Cu  Cu2       1.0  0.002510516520429249  5.9500002263226295e-09  0.9996037756837969  1.0000
  Cu  Cu3       1.0  0.002510487715555864  0.009999984169648405  0.0  1.0000
  Cu  Cu4       1.0  0.0075105166276570245  5.9500002263226295e-09  0.9996037756837969  1.0000
