data_image0
_chemical_formula_structural       COAu6Na18
_chemical_formula_sum              "C1 O1 Au6 Na18"
_cell_length_a       9.110438838398476
_cell_length_b       5.369505858599535
_cell_length_c       103.55860900878906
_cell_angle_alpha    88.33296164503282
_cell_angle_beta     86.47755050990915
_cell_angle_gamma    103.95209438483349

_space_group_name_H-M_alt    "P 1"
_space_group_IT_number       1

loop_
  _space_group_symop_operation_xyz
  'x, y, z'

loop_
  _atom_site_type_symbol
  _atom_site_label
  _atom_site_symmetry_multiplicity
  _atom_site_fract_x
  _atom_site_fract_y
  _atom_site_fract_z
  _atom_site_occupancy
  C   C1        1.0  0.009847359159631754  0.0026577855690668533  4.240993657330641e-05  1.0000
  O   O1        1.0  0.009847359159631754  0.0026577855690668533  0.00015828600741770962  1.0000
  Au  Au1       1.0  0.009152640238889512  0.00041666644779025344  0.9993266354048289  1.0000
  Au  Au2       1.0  0.00960947094092684  0.00546167100339281  0.9997360052946109  1.0000
  Au  Au3       1.0  0.0044859737051338765  0.0030833333444188118  0.9995426716112714  1.0000
  Au  Au4       1.0  0.0031526404399456055  0.0024166666438557045  0.9986785266686882  1.0000
  Au  Au5       1.0  0.003819307178136429  0.007750000256328391  0.9991105993073661  1.0000
  Au  Au6       1.0  0.008485973711892063  0.005083333272939807  0.9988945631010545  1.0000
  Na  Na1       1.0  0.0033341807875851763  0.007942821963562737  0.9997106012420384  1.0000
  Na  Na2       1.0  0.00815264044839334  0.00491666670633699  0.9994886624114491  1.0000
  Na  Na3       1.0  0.008726500158249731  0.008920099685793026  0.9999393777535498  1.0000
  Na  Na4       1.0  0.005862525793976259  0.0036538946306052785  0.9998275435415322  1.0000
  Na  Na5       1.0  0.0008193071202694441  0.0012500000478344417  0.9995966808101392  1.0000
  Na  Na6       1.0  0.005485973495630047  0.008583333436382571  0.9993806446530457  1.0000
  Na  Na7       1.0  0.007272705781689333  0.009480162522373204  0.9996523534188677  1.0000
  Na  Na8       1.0  0.001819307174757335  0.006749999988407809  0.9994346532751505  1.0000
  Na  Na9       1.0  0.001621844219325747  0.004044004046568105  0.9999486201280973  1.0000
  Na  Na10      1.0  0.0074859739213958935  0.009583333184446449  0.999056590108198  1.0000
  Na  Na11      1.0  0.0021526404382560585  0.006916666902050722  0.9988405539642324  1.0000
  Na  Na12      1.0  0.002819307176446882  0.002250000077252887  0.9992726262668649  1.0000
  Na  Na13      1.0  0.00015264044807655075  0.005916666639574624  0.9991646082197194  1.0000
  Na  Na14      1.0  0.0048193069686326  0.003249999997781653  0.9989485720129638  1.0000
  Na  Na15      1.0  0.009485973502388235  0.0005833333614331657  0.9987325358061288  1.0000
  Na  Na16      1.0  0.0011526404365665118  0.001416666636215195  0.9990025812116442  1.0000
  Na  Na17      1.0  0.005819307181515523  0.00874999983016878  0.9987865447650643  1.0000
  Na  Na18      1.0  0.00648597370851297  0.0040833333520593216  0.9992186170683154  1.0000
