data_image0
_chemical_formula_structural       COCa2Zn10Ca2Zn10
_chemical_formula_sum              "C1 O1 Ca4 Zn20"
_cell_length_a       5.475161967532265
_cell_length_b       6.970752154051661
_cell_length_c       111.82450866699219
_cell_angle_alpha    85.7213242114373
_cell_angle_beta     66.8759038207207
_cell_angle_gamma    66.8759045546126

_space_group_name_H-M_alt    "P 1"
_space_group_IT_number       1

loop_
  _space_group_symop_operation_xyz
  'x, y, z'

loop_
  _atom_site_type_symbol
  _atom_site_label
  _atom_site_symmetry_multiplicity
  _atom_site_fract_x
  _atom_site_fract_y
  _atom_site_fract_z
  _atom_site_occupancy
  C   C1        1.0  0.00932611058903313  0.0027906152190923317  0.999920490611954  1.0000
  O   O1        1.0  0.00932611058903313  0.0027906152190923317  2.7801297751702783e-05  1.0000
  Ca  Ca1       1.0  0.0006738895413129109  6.516264771629114e-05  0.9991317789052836  1.0000
  Ca  Ca2       1.0  0.005673889762485733  0.0050651627640910446  0.9988200963605304  1.0000
  Zn  Zn1       1.0  0.00567388957460569  6.516264771629114e-05  0.9988200962154388  1.0000
  Zn  Zn2       1.0  0.0006738894517531217  0.0050651627640910446  0.9991317790557099  1.0000
  Zn  Zn3       1.0  0.0006738895413129109  6.516264771629114e-05  0.9988200962800413  1.0000
  Zn  Zn4       1.0  0.005673889762485733  0.0050651627640910446  0.9991317789857727  1.0000
  Zn  Zn5       1.0  0.0031738896154631683  0.002565162518937959  0.9986642550092348  1.0000
  Zn  Zn6       1.0  0.00817388969925098  0.007565162717395218  0.9989759377172261  1.0000
  Zn  Zn7       1.0  0.0056738898240724775  0.008398495840597335  0.999235673293694  1.0000
  Zn  Zn8       1.0  0.0006738895806222073  0.0033984959339889874  0.9989239905874154  1.0000
  Zn  Zn9       1.0  0.0006738896422089512  0.006731829010495279  0.9987162020035846  1.0000
  Zn  Zn10      1.0  0.005673889940392676  0.0017318292498113863  0.9990278846752823  1.0000
  Ca  Ca3       1.0  0.0008206021491906831  0.009934836955734001  0.9997493145560307  1.0000
  Ca  Ca4       1.0  0.005673889762485733  0.0050651627640910446  0.999443461611015  1.0000
  Zn  Zn11      1.0  0.00567388957460569  6.516264771629114e-05  0.9994434614659234  1.0000
  Zn  Zn12      1.0  0.0008009814519103892  0.005135401457836209  0.9997533204849037  1.0000
  Zn  Zn13      1.0  0.0006738895413129109  6.516264771629114e-05  0.999443461530526  1.0000
  Zn  Zn14      1.0  0.005552360795426371  0.005114296695676355  0.9997538918672855  1.0000
  Zn  Zn15      1.0  0.0031738896154631683  0.002565162518937959  0.9992876202597195  1.0000
  Zn  Zn16      1.0  0.008171551828523462  0.007567130362754094  0.9995911963645447  1.0000
  Zn  Zn17      1.0  0.0058389764193408295  0.008338700668288245  0.9998489432951588  1.0000
  Zn  Zn18      1.0  0.0006738895806222073  0.0033984959339889874  0.9995473558379001  1.0000
  Zn  Zn19      1.0  0.0006738896422089512  0.006731829010495279  0.9993395675205791  1.0000
  Zn  Zn20      1.0  0.005637067841764183  0.0016857331735420852  0.9996650293088565  1.0000
