data_image0
_chemical_formula_structural       HCo8Sn16
_chemical_formula_sum              "H1 Co8 Sn16"
_cell_length_a       5.3188790063311915
_cell_length_b       8.471010030610719
_cell_length_c       39.18613815307617
_cell_angle_alpha    85.14326731880602
_cell_angle_beta     86.1342066480388
_cell_angle_gamma    97.04343359640899

_space_group_name_H-M_alt    "P 1"
_space_group_IT_number       1

loop_
  _space_group_symop_operation_xyz
  'x, y, z'

loop_
  _atom_site_type_symbol
  _atom_site_label
  _atom_site_symmetry_multiplicity
  _atom_site_fract_x
  _atom_site_fract_y
  _atom_site_fract_z
  _atom_site_occupancy
  H   H1        1.0  0.008821077237856757  0.004385973962195422  0.00015692225214859886  1.0000
  Co  Co1       1.0  0.0007011356310422594  0.0037941175509220246  0.9996559599314935  1.0000
  Co  Co2       1.0  0.0076875094254656344  0.008798077550294216  0.9990491117588927  1.0000
  Co  Co3       1.0  0.00435417610500955  0.003798077407869328  0.9983938235081743  1.0000
  Co  Co4       1.0  0.001020842923765993  0.008798077550294216  0.9977385353878644  1.0000
  Co  Co5       1.0  0.0010208429747327315  0.0012980775591957712  0.9987214676225448  1.0000
  Co  Co6       1.0  0.007687509719719069  0.006298077479081772  0.9980661793852977  1.0000
  Co  Co7       1.0  0.007873917364015461  0.0015715890889817714  0.9998991812736453  1.0000
  Co  Co8       1.0  0.004401524498188708  0.006348195906799889  0.9993455810364983  1.0000
  Sn  Sn1       1.0  0.00505826919187803  0.009058438255848877  0.9997016600677102  1.0000
  Sn  Sn2       1.0  0.0015624082751596361  0.004219990663194082  0.9989938170210548  1.0000
  Sn  Sn3       1.0  0.008229074181086801  0.009219989915463423  0.9983385288037051  1.0000
  Sn  Sn4       1.0  0.004895741394386829  0.004219990663194082  0.9976832401515443  1.0000
  Sn  Sn5       1.0  0.0026875094863254537  0.008376164294969462  0.9988832270739785  1.0000
  Sn  Sn6       1.0  0.009354176229171096  0.0033761645976223475  0.9982279386928498  1.0000
  Sn  Sn7       1.0  0.006020842693301065  0.008376164294969462  0.997572650583931  1.0000
  Sn  Sn8       1.0  0.00552696859558539  0.003498350240900303  0.9995939326216294  1.0000
  Sn  Sn9       1.0  0.0006458236121154085  0.0007800093123266405  0.9994266093757047  1.0000
  Sn  Sn10      1.0  0.00714594407934812  0.005876164223757018  0.9987767627451397  1.0000
  Sn  Sn11      1.0  0.00381261087311856  0.0008761646376793472  0.9981214744831937  1.0000
  Sn  Sn12      1.0  0.002633089279771857  0.005662024399861403  8.514882176293555e-05  1.0000
  Sn  Sn13      1.0  0.009224055798754103  0.006733857132427572  0.999560346499383  1.0000
  Sn  Sn14      1.0  0.0060208427804338835  0.0017199905919816384  0.9988873526930192  1.0000
  Sn  Sn15      1.0  0.002687509507809107  0.006719990289328753  0.9982320642014253  1.0000
  Sn  Sn16      1.0  0.009354175636415822  0.0017199905919816384  0.9975767758259175  1.0000
