data_image0
_chemical_formula_structural       COPt18V6
_chemical_formula_sum              "C1 O1 Pt18 V6"
_cell_length_a       4.8391690385917405
_cell_length_b       7.337151832643722
_cell_length_c       100.74613189697266
_cell_angle_alpha    85.82619293766373
_cell_angle_beta     89.53374235462026
_cell_angle_gamma    89.02304361024134

_space_group_name_H-M_alt    "P 1"
_space_group_IT_number       1

loop_
  _space_group_symop_operation_xyz
  'x, y, z'

loop_
  _atom_site_type_symbol
  _atom_site_label
  _atom_site_symmetry_multiplicity
  _atom_site_fract_x
  _atom_site_fract_y
  _atom_site_fract_z
  _atom_site_occupancy
  C   C1        1.0  0.006699865258825027  0.005988553799625188  1.529513338622938e-05  1.0000
  O   O1        1.0  0.006699865258825027  0.005988553799625188  0.00013440664757286645  1.0000
  Pt  Pt1       1.0  0.005021931131414473  0.002638888947723912  0.9991079436918352  1.0000
  Pt  Pt2       1.0  0.008355264494378938  0.008194444412764047  0.9992774903526118  1.0000
  Pt  Pt3       1.0  0.0016885974542283067  0.0037499999898170148  0.9994470373328035  1.0000
  Pt  Pt4       1.0  0.0016885975665460696  0.00541666668024398  0.999192717102375  1.0000
  Pt  Pt5       1.0  0.005021930828223522  0.0009722221936532925  0.9993622639226756  1.0000
  Pt  Pt6       1.0  0.008355264035665382  0.00986111084861639  0.999023170123756  1.0000
  Pt  Pt7       1.0  0.006688597776001362  0.006249999898170151  0.9990655567598123  1.0000
  Pt  Pt8       1.0  2.1930702602139864e-05  0.00180555560251043  0.9992351037393422  1.0000
  Pt  Pt9       1.0  0.0033552640924622117  0.007361111194837875  0.9994046503994337  1.0000
  Pt  Pt10      1.0  0.005021930810839788  0.00930555570943177  0.9996165839922333  1.0000
  Pt  Pt11      1.0  0.008189031630062286  0.00473729255549189  0.9997928553926423  1.0000
  Pt  Pt12      1.0  0.0019451468821568543  0.00044003840478101076  0.9999428710941495  1.0000
  Pt  Pt13      1.0  0.0016448838333227706  0.002125670968070787  0.9996970481538915  1.0000
  Pt  Pt14      1.0  0.005260215831098274  0.007583808999562311  0.9998929679864481  1.0000
  Pt  Pt15      1.0  0.008355264195952726  0.006527777467762462  0.9995318105844625  1.0000
  Pt  Pt16      1.0  0.006688597936288704  0.0029166665173162225  0.9995741975163348  1.0000
  Pt  Pt17      1.0  0.009978069693233177  0.008478485536316466  0.9997460482063185  1.0000
  Pt  Pt18      1.0  0.003179997228181042  0.004070708005093643  0.9999187697705512  1.0000
  V   V1        1.0  2.193070194820505e-05  0.00013888889617255163  0.9994894239698114  1.0000
  V   V2        1.0  0.003355264031377491  0.009027777121540978  0.9991503301731213  1.0000
  V   V3        1.0  0.0066885974648691815  0.0045833334623178075  0.9993198769889691  1.0000
  V   V4        1.0  0.00030282490456833174  0.006724965368075961  0.9999642353093348  1.0000
  V   V5        1.0  0.0033552641789588666  0.00569444424983629  0.9996589709269499  1.0000
  V   V6        1.0  0.006554718316185311  0.0012220531342119353  0.9998169323085013  1.0000
