data_image0
_chemical_formula_structural       CONi4As4Ni4As4
_chemical_formula_sum              "C1 O1 Ni8 As8"
_cell_length_a       5.085370063781738
_cell_length_b       6.373623847961426
_cell_length_c       99.43850708007812
_cell_angle_alpha    90.0
_cell_angle_beta     90.0
_cell_angle_gamma    90.0

_space_group_name_H-M_alt    "P 1"
_space_group_IT_number       1

loop_
  _space_group_symop_operation_xyz
  'x, y, z'

loop_
  _atom_site_type_symbol
  _atom_site_label
  _atom_site_symmetry_multiplicity
  _atom_site_fract_x
  _atom_site_fract_y
  _atom_site_fract_z
  _atom_site_occupancy
  C   C1        1.0  0.0012500010695237057  0.009999999859723496  0.00014116574644281046  1.0000
  O   O1        1.0  0.0012500010695237057  0.009999999859723496  0.0002618435871613101  1.0000
  Ni  Ni1       1.0  0.0012499999706979807  0.004999999929861748  0.9994410260345105  1.0000
  Ni  Ni2       1.0  0.0012499999706979807  1.5000000006961278e-10  0.9996260558596264  1.0000
  Ni  Ni3       1.0  0.006249999853489904  0.004999999929861748  0.9994410260345105  1.0000
  Ni  Ni4       1.0  0.006249999853489904  1.5000000006961278e-10  0.9996260558596264  1.0000
  As  As1       1.0  0.008749999794885865  0.003333333286574499  0.9996260558596264  1.0000
  As  As2       1.0  0.008749999794885865  0.008333333216436247  0.9994410260345105  1.0000
  As  As3       1.0  0.003749999912093942  0.006666666573148998  0.9996260558596264  1.0000
  As  As4       1.0  0.003749999912093942  0.0016666667894086077  0.9994410260345105  1.0000
  Ni  Ni5       1.0  0.0012500003369732224  0.004999999929861748  0.9998195652680755  1.0000
  Ni  Ni6       1.0  0.0012500010695237057  0.009999999859723496  0.9999669825830599  1.0000
  Ni  Ni7       1.0  0.006249999853489904  0.004999999929861748  0.9998195634698392  1.0000
  Ni  Ni8       1.0  0.00624999912093942  0.009999999859723496  0.9999669652001089  1.0000
  As  As5       1.0  0.008749928004938493  0.003156658536614562  0.0  1.0000
  As  As6       1.0  0.008749793948200031  0.008231990456072955  0.9998076672375116  1.0000
  As  As7       1.0  0.0037500720683165565  0.006843341323108935  0.9999999994005879  1.0000
  As  As8       1.0  0.0037502064913302593  0.001768008380801032  0.9998076675372176  1.0000
