data_image0
_chemical_formula_structural       HV6Co18V6Co18
_chemical_formula_sum              "H1 V12 Co36"
_cell_length_a       4.979396691086592
_cell_length_b       13.119024474395056
_cell_length_c       104.85577392578125
_cell_angle_alpha    112.30614695776289
_cell_angle_beta     120.00000085686737
_cell_angle_gamma    79.0601878704895

_space_group_name_H-M_alt    "P 1"
_space_group_IT_number       1

loop_
  _space_group_symop_operation_xyz
  'x, y, z'

loop_
  _atom_site_type_symbol
  _atom_site_label
  _atom_site_symmetry_multiplicity
  _atom_site_fract_x
  _atom_site_fract_y
  _atom_site_fract_z
  _atom_site_occupancy
  H   H1        1.0  0.006077874760256383  0.004651123301107882  0.00039291814231855014  1.0000
  V   V1        1.0  4.5444602333395116e-05  0.007499999926337111  0.9995280472179412  1.0000
  V   V2        1.0  4.5444602333395116e-05  0.002499999975445704  0.9997654874072222  1.0000
  V   V3        1.0  0.006712111610502111  0.0008888133484147786  0.9993723883489879  1.0000
  V   V4        1.0  0.006712111610502111  0.004111186602476629  0.9995254125891762  1.0000
  V   V5        1.0  0.003378777974811232  0.009111186553368036  0.9994462655816184  1.0000
  V   V6        1.0  0.003378777974811232  0.005888813299306186  0.9997681220905008  1.0000
  Co  Co1       1.0  0.005090889455731538  0.007499999926337111  0.9997633292278845  1.0000
  Co  Co2       1.0  0.005090889455731538  0.007499999926337111  0.9995323632893999  1.0000
  Co  Co3       1.0  0.009954555488103907  0.007499999926337111  0.999763329422187  1.0000
  Co  Co4       1.0  0.00499999991361213  0.002499999975445704  0.9995302051624425  1.0000
  Co  Co5       1.0  0.00499999991361213  0.002499999975445704  0.9997611711009271  1.0000
  Co  Co6       1.0  0.000136333800251133  0.002499999975445704  0.999530205250439  1.0000
  Co  Co7       1.0  0.008385376841858503  0.009173110647080747  0.9996863333562284  1.0000
  Co  Co8       1.0  0.008385376841858503  0.005826889205593476  0.9997658079611559  1.0000
  Co  Co9       1.0  0.003365580931819652  0.005826889205593476  0.999527427852317  1.0000
  Co  Co10      1.0  0.003365580931819652  0.009173110647080747  0.9996863334021132  1.0000
  Co  Co11      1.0  0.008385376841858503  0.009173110647080747  0.9994498330461035  1.0000
  Co  Co12      1.0  0.008385376841858503  0.005826889205593476  0.9995274278064321  1.0000
  Co  Co13      1.0  0.0017055127434548404  0.0008268891012377172  0.9996072013161609  1.0000
  Co  Co14      1.0  0.0017055127434548404  0.004173110696189339  0.9995277264342991  1.0000
  Co  Co15      1.0  0.006725308653493692  0.004173110696189339  0.99976610682736  1.0000
  Co  Co16      1.0  0.006725308653493692  0.0008268891012377172  0.999607201270276  1.0000
  Co  Co17      1.0  0.0017055127434548404  0.0008268891012377172  0.9993688208772151  1.0000
  Co  Co18      1.0  0.0017055127434548404  0.004173110696189339  0.9997661068732449  1.0000
  V   V7        1.0  0.0001421399020112755  0.007554776264395006  1.467345483037965e-05  1.0000
  V   V8        1.0  0.009927783023249257  0.002461728421507615  0.00022737955553806956  1.0000
  V   V9        1.0  0.006712111610502111  0.0008888133484147786  0.9998472688138365  1.0000
  V   V10       1.0  0.006805407918685379  0.004135403891066298  1.0273868401101184e-05  1.0000
  V   V11       1.0  0.003378777974811232  0.009111186553368036  0.9999211463306891  1.0000
  V   V12       1.0  0.00327988913188069  0.005848607480676555  0.00023169823840679384  1.0000
  Co  Co19      1.0  0.005030338469748765  0.007462792187286501  0.00023788989900553473  1.0000
  Co  Co20      1.0  0.005103572922834761  0.007518829388459733  9.278393083534049e-06  1.0000
  Co  Co21      1.0  4.549500088189057e-05  0.007462652841654961  0.0002378594363517352  1.0000
  Co  Co22      1.0  0.005041095487346458  0.0025000696482614733  7.09444682778781e-06  1.0000
  Co  Co23      1.0  0.004963660856011186  0.0024938603271186213  0.00023240681667192428  1.0000
  Co  Co24      1.0  0.00013771170027897754  0.0025000585988281354  7.084053530296835e-06  1.0000
  Co  Co25      1.0  0.008294201355888722  0.00916979090622011  0.00015346720627866357  1.0000
  Co  Co26      1.0  0.008357343114098888  0.005809945513427193  0.0002372328784210509  1.0000
  Co  Co27      1.0  0.003378746011299257  0.005845287739815919  4.658793286529565e-06  1.0000
  Co  Co28      1.0  0.003296929787187283  0.00916983571781087  0.00015347412465351013  1.0000
  Co  Co29      1.0  0.008385376841858503  0.009173110647080747  0.9999247135109521  1.0000
  Co  Co30      1.0  0.008404636153641587  0.005845183997914024  4.639642399037717e-06  1.0000
  Co  Co31      1.0  0.00172516026072965  0.000832583472747717  8.441035028275083e-05  1.0000
  Co  Co32      1.0  0.00170414209190923  0.004194163242913807  3.437672287178912e-06  1.0000
  Co  Co33      1.0  0.0066855719609576585  0.004173312348347755  0.0002381610087769073  1.0000
  Co  Co34      1.0  0.006751005589364313  0.0008326167745120826  8.447480433667192e-05  1.0000
  Co  Co35      1.0  0.0017055127434548404  0.0008268891012377172  0.9998437013420638  1.0000
  Co  Co36      1.0  0.001685408774270845  0.00417341609024965  0.0002382058080258923  1.0000
