data_image0
_chemical_formula_structural       Ir4Sn8H
_chemical_formula_sum              "Ir4 Sn8 H1"
_cell_length_a       4.572421073913574
_cell_length_b       6.466379642486572
_cell_length_c       106.5793685913086
_cell_angle_alpha    90.0
_cell_angle_beta     90.0
_cell_angle_gamma    90.0

_space_group_name_H-M_alt    "P 1"
_space_group_IT_number       1

loop_
  _space_group_symop_operation_xyz
  'x, y, z'

loop_
  _atom_site_type_symbol
  _atom_site_label
  _atom_site_symmetry_multiplicity
  _atom_site_fract_x
  _atom_site_fract_y
  _atom_site_fract_z
  _atom_site_occupancy
  Ir  Ir1       1.0  0.002499999926674267  0.0012414153922105636  0.9997830368010228  1.0000
  Ir  Ir2       1.0  0.002499999926674267  0.0012414146720838265  0.9993526135528786  1.0000
  Ir  Ir3       1.0  0.0074999995763402084  0.006241413900107964  0.9999853599208595  1.0000
  Ir  Ir4       1.0  0.0074999995763402084  0.006241415052310744  0.9995671210796309  1.0000
  Sn  Sn1       1.0  0.002499999926674267  0.0037851589608450895  0.0  1.0000
  Sn  Sn2       1.0  0.002499999926674267  0.0037414147181719375  0.9995671210796309  1.0000
  Sn  Sn3       1.0  0.0025000001303568586  0.00869766941547223  0.0  1.0000
  Sn  Sn4       1.0  0.002499999926674267  0.008741415098398856  0.9995671210796309  1.0000
  Sn  Sn5       1.0  0.0074999995763402084  0.008741415098398856  0.9993526135528786  1.0000
  Sn  Sn6       1.0  0.007500000391070576  0.008758585800319314  0.9997828913956985  1.0000
  Sn  Sn7       1.0  0.0074999995763402084  0.0037414147181719375  0.9993526135528786  1.0000
  Sn  Sn8       1.0  0.0074999995763402084  0.0037242454565049534  0.9997828913956985  1.0000
  H   H1        1.0  0.007500000391070576  0.00869766941547223  0.00014074005028500875  1.0000
