data_image0
_chemical_formula_structural       HFe2Sb2As2Fe2Sb2As2Fe2Sb2As2
_chemical_formula_sum              "H1 Fe6 Sb6 As6"
_cell_length_a       5.597816467285156
_cell_length_b       6.306142330169678
_cell_length_c       100.69869232177734
_cell_angle_alpha    90.0
_cell_angle_beta     90.0
_cell_angle_gamma    90.0

_space_group_name_H-M_alt    "P 1"
_space_group_IT_number       1

loop_
  _space_group_symop_operation_xyz
  'x, y, z'

loop_
  _atom_site_type_symbol
  _atom_site_label
  _atom_site_symmetry_multiplicity
  _atom_site_fract_x
  _atom_site_fract_y
  _atom_site_fract_z
  _atom_site_occupancy
  H   H1        1.0  0.003543682786052899  0.0013621010369121553  8.554472633415561e-05  1.0000
  Fe  Fe1       1.0  0.002772559845270298  0.0074679278766427585  0.9994081782702211  1.0000
  Fe  Fe2       1.0  0.007304984095536835  0.002467928148383142  0.9992557499897339  1.0000
  Sb  Sb1       1.0  0.0007453840376349549  0.001121508156152932  0.9994081782702211  1.0000
  Sb  Sb2       1.0  0.00933216015273089  0.006121508032097539  0.9992557499897339  1.0000
  As  As1       1.0  0.004457082309046778  0.003976844607279474  0.9994081782702211  1.0000
  As  As2       1.0  0.005620462130877777  0.00897684433553909  0.9992557499897339  1.0000
  Fe  Fe3       1.0  0.002772559845270298  0.0074679278766427585  0.9997130351271508  1.0000
  Fe  Fe4       1.0  0.007304984095536835  0.002467928148383142  0.9995606068466636  1.0000
  Sb  Sb3       1.0  0.0007453840376349549  0.001121508156152932  0.9997130351271508  1.0000
  Sb  Sb4       1.0  0.00933216015273089  0.006121508032097539  0.9995606068466636  1.0000
  As  As3       1.0  0.004457082309046778  0.003976844607279474  0.9997130351271508  1.0000
  As  As4       1.0  0.005620462130877777  0.00897684433553909  0.9995606068466636  1.0000
  Fe  Fe5       1.0  0.0028378352535786957  0.007449725406105843  0.9999977584337536  1.0000
  Fe  Fe6       1.0  0.007316678083988786  0.002461117802698372  0.9998625068131303  1.0000
  Sb  Sb5       1.0  0.0006678397407907272  0.000965269988674428  2.492595621913209e-05  1.0000
  Sb  Sb6       1.0  0.009330239548891126  0.006117557163212625  0.9998766073125022  1.0000
  As  As5       1.0  0.004350532052783123  0.0040863031107364655  0.0  1.0000
  As  As6       1.0  0.005612676564584846  0.009034729763214787  0.9998646578170223  1.0000
