data_image0
_chemical_formula_structural       COAu16Nb8
_chemical_formula_sum              "C1 O1 Au16 Nb8"
_cell_length_a       5.486301330108238
_cell_length_b       7.304086325513164
_cell_length_c       102.6401596069336
_cell_angle_alpha    95.55352223871675
_cell_angle_beta     91.67236883452108
_cell_angle_gamma    96.1965458731586

_space_group_name_H-M_alt    "P 1"
_space_group_IT_number       1

loop_
  _space_group_symop_operation_xyz
  'x, y, z'

loop_
  _atom_site_type_symbol
  _atom_site_label
  _atom_site_symmetry_multiplicity
  _atom_site_fract_x
  _atom_site_fract_y
  _atom_site_fract_z
  _atom_site_occupancy
  C   C1        1.0  0.007270478821684787  0.005050874321064102  0.0001011478023603743  1.0000
  O   O1        1.0  0.007270478821684787  0.005050874321064102  0.00021806076079696333  1.0000
  Au  Au1       1.0  0.0017086349162775331  0.0025954967957274914  0.9992405707394325  1.0000
  Au  Au2       1.0  0.009625301914549403  0.005512163568959585  0.9993730731046269  1.0000
  Au  Au3       1.0  0.00754196842303141  0.008428830084372096  0.9995055757256996  1.0000
  Au  Au4       1.0  0.0037919683482770324  0.009678830682513526  0.9991080683649368  1.0000
  Au  Au5       1.0  0.005736412628657507  0.004956607747563394  0.9991964034829646  1.0000
  Au  Au6       1.0  0.003653079383068685  0.00787327477861507  0.9993289058176147  1.0000
  Au  Au7       1.0  0.0015697460930594329  0.0007899412785584069  0.9994614081949952  1.0000
  Au  Au8       1.0  0.00781974645982853  0.0020399412321508823  0.9990639008624216  1.0000
  Au  Au9       1.0  0.0032909501989959746  0.004280097674350223  0.9997693990268838  1.0000
  Au  Au10      1.0  0.0011219986129576772  0.0069206092533287515  0.9999364507210796  1.0000
  Au  Au11      1.0  0.00925024364042865  0.0003211698485948115  1.6641714425077337e-05  1.0000
  Au  Au12      1.0  0.005458634831420454  0.001345496842135016  0.9996380781043852  1.0000
  Au  Au13      1.0  0.007403079703752232  0.006623274696112803  0.999726412891955  1.0000
  Au  Au14      1.0  0.004942323847657221  0.00949290460711794  0.9998632019628225  1.0000
  Au  Au15      1.0  0.003442671334174516  0.0028060969785096116  9.178576656853552e-06  1.0000
  Au  Au16      1.0  0.009486413157218897  0.0037066079228807096  0.9995939102690473  1.0000
  Nb  Nb1       1.0  0.0045558571636193325  0.004609385617010357  0.9994834919597563  1.0000
  Nb  Nb2       1.0  0.0008058571613605025  0.005859385699512622  0.9990859845955554  1.0000
  Nb  Nb3       1.0  0.00872252430382527  0.008776052730564298  0.9992184869627503  1.0000
  Nb  Nb4       1.0  0.006639190655137323  0.0016927191015978444  0.9993509896290408  1.0000
  Nb  Nb5       1.0  0.006157329559200984  0.006213469956040813  0.9999834643083213  1.0000
  Nb  Nb6       1.0  0.002472523833117252  0.007526052648062031  0.999615994294274  1.0000
  Nb  Nb7       1.0  0.0003746984547157713  0.00039166004249097705  0.9997459328489294  1.0000
  Nb  Nb8       1.0  0.008129052563707995  0.0034061277089536537  0.9998794670371538  1.0000
