data_image0
_chemical_formula_structural       HAl15Cu15
_chemical_formula_sum              "H1 Al15 Cu15"
_cell_length_a       6.447972005147365
_cell_length_b       8.130122323263942
_cell_length_c       104.83982849121094
_cell_angle_alpha    91.00992215542857
_cell_angle_beta     90.05114062308549
_cell_angle_gamma    107.66291272609449

_space_group_name_H-M_alt    "P 1"
_space_group_IT_number       1

loop_
  _space_group_symop_operation_xyz
  'x, y, z'

loop_
  _atom_site_type_symbol
  _atom_site_label
  _atom_site_symmetry_multiplicity
  _atom_site_fract_x
  _atom_site_fract_y
  _atom_site_fract_z
  _atom_site_occupancy
  H   H1        1.0  0.009221767369166774  0.0075782278586917  9.170087961101123e-05  1.0000
  Al  Al1       1.0  0.0005273368817840354  0.005255141268530071  0.9997132206934816  1.0000
  Al  Al2       1.0  0.007337553566092032  0.002150482529524802  3.3421394793154744e-06  1.0000
  Al  Al3       1.0  0.0038606702596693655  0.00858847470446879  0.9994362915454299  1.0000
  Al  Al4       1.0  0.00742703509010752  0.001769151821860697  0.9997112191313737  1.0000
  Al  Al5       1.0  0.004850442991376691  0.008773264437100909  0.9999730951464793  1.0000
  Al  Al6       1.0  0.0007603681894468637  0.0051024851375587295  0.9994342899400585  1.0000
  Al  Al7       1.0  0.006960972244766302  0.0020744634825999534  0.9994382932065716  1.0000
  Al  Al8       1.0  0.003627638767994088  0.00874113035447739  0.9997152225824508  1.0000
  Al  Al9       1.0  0.0005724497790487187  0.006019059679980783  0.9999745775520732  1.0000
  Al  Al10      1.0  0.0034259470530808257  0.0031109963850378696  0.9996747363255393  1.0000
  Al  Al11      1.0  0.009801720902142734  0.00974485919319416  0.9999535723381462  1.0000
  Al  Al12      1.0  0.006759280394857014  0.0064443298209765874  0.9993978074617509  1.0000
  Al  Al13      1.0  0.0009620598719180283  0.000732618739061753  0.9994747756847878  1.0000
  Al  Al14      1.0  0.007610532983201259  0.007372087709042568  0.9997530464695455  1.0000
  Al  Al15      1.0  0.004287998877556933  0.003889634901645351  2.857733884225176e-05  1.0000
  Cu  Cu1       1.0  0.0005273368015053032  0.0002551409643211373  0.9997132208636206  1.0000
  Cu  Cu2       1.0  0.007235732967006497  0.00684476496989989  0.9999943121009791  1.0000
  Cu  Cu3       1.0  0.003860670072670015  0.0035884743100793415  0.9994362917154398  1.0000
  Cu  Cu4       1.0  0.00047925572719978996  0.002612900068270545  0.9992886176585869  1.0000
  Cu  Cu5       1.0  0.007145922647194957  0.00927956718062935  0.9995655467936353  1.0000
  Cu  Cu6       1.0  0.0038513257273054663  0.005931632677812156  0.9998476658508155  1.0000
  Cu  Cu7       1.0  0.007242084654583032  0.004564048792369509  0.9995839657726343  1.0000
  Cu  Cu8       1.0  0.0038553002429100878  0.0012231498125214932  0.9998682299029391  1.0000
  Cu  Cu9       1.0  0.0005754180887986237  0.007897382228308226  0.999307036865767  1.0000
  Cu  Cu10      1.0  0.00019827895907007968  0.007644703642917994  0.9995595270282241  1.0000
  Cu  Cu11      1.0  0.006874002814175978  0.004289106922680645  0.9998330091336688  1.0000
  Cu  Cu12      1.0  0.0035316125409561036  0.0009780369514015854  0.9992825979368626  1.0000
  Cu  Cu13      1.0  0.00418972796226173  0.006198911849118125  0.9995899852100179  1.0000
  Cu  Cu14      1.0  0.000851446000500838  0.002917873251481119  0.9998818725367178  1.0000
  Cu  Cu15      1.0  0.00752306112002547  0.009532244804094103  0.999313056345562  1.0000
