data_image0
_chemical_formula_structural       HGa4Pt12
_chemical_formula_sum              "H1 Ga4 Pt12"
_cell_length_a       5.576406440478503
_cell_length_b       5.618175896720101
_cell_length_c       106.72643280029297
_cell_angle_alpha    86.32925073169737
_cell_angle_beta     85.6460209267297
_cell_angle_gamma    60.245633714979455

_space_group_name_H-M_alt    "P 1"
_space_group_IT_number       1

loop_
  _space_group_symop_operation_xyz
  'x, y, z'

loop_
  _atom_site_type_symbol
  _atom_site_label
  _atom_site_symmetry_multiplicity
  _atom_site_fract_x
  _atom_site_fract_y
  _atom_site_fract_z
  _atom_site_occupancy
  H   H1        1.0  0.0052456502481633225  0.009169899658952232  6.212434003713845e-05  1.0000
  Ga  Ga1       1.0  0.0034764936165138163  0.008381595311598176  0.9995286412011015  1.0000
  Ga  Ga2       1.0  0.009949786370706145  0.0045618544621516596  0.9999660159795049  1.0000
  Ga  Ga3       1.0  0.0003514939118206395  0.005256594853121762  0.9993135680548609  1.0000
  Ga  Ga4       1.0  0.006556030538044878  0.0015710317111875384  0.9997450263826613  1.0000
  Pt  Pt1       1.0  0.00015535044644139577  6.045090327831176e-05  0.9993000686898078  1.0000
  Pt  Pt2       1.0  0.006403690988491876  0.006326951980451837  0.9997269633461859  1.0000
  Pt  Pt3       1.0  0.001070261626265327  0.0068283062555940235  0.9997554072992555  1.0000
  Pt  Pt4       1.0  0.004919977931208517  0.0004527383435336389  0.9993270671774939  1.0000
  Pt  Pt5       1.0  0.008908009961061275  0.0031854509558120678  0.9995151419738302  1.0000
  Pt  Pt6       1.0  0.005428182983422544  0.009278026736583954  0.9999461391002831  1.0000
  Pt  Pt7       1.0  0.0036726377362753617  0.0035777386587361737  0.9995421404175928  1.0000
  Pt  Pt8       1.0  5.021350124359286e-05  0.009939549365121423  0.9999663023476811  1.0000
  Pt  Pt9       1.0  0.0016344834517130393  0.001568584975388008  0.9997427448522787  1.0000
  Pt  Pt10      1.0  0.005351494193211608  0.005256594853121762  0.9993135679350676  1.0000
  Pt  Pt11      1.0  0.008476493562915535  0.008381595311598176  0.9995286416411177  1.0000
  Pt  Pt12      1.0  0.004718435185210531  0.004544901532592514  0.9999513194065234  1.0000
