data_image0
_chemical_formula_structural       HFe2Co2Ge2Fe2Co2Ge2Fe2Co2Ge2Fe2Co2Ge2
_chemical_formula_sum              "H1 Fe8 Co8 Ge8"
_cell_length_a       8.101811074982624
_cell_length_b       5.0153045654296875
_cell_length_c       102.40724182128906
_cell_angle_alpha    90.0
_cell_angle_beta     120.00000136378061
_cell_angle_gamma    90.0

_space_group_name_H-M_alt    "P 1"
_space_group_IT_number       1

loop_
  _space_group_symop_operation_xyz
  'x, y, z'

loop_
  _atom_site_type_symbol
  _atom_site_label
  _atom_site_symmetry_multiplicity
  _atom_site_fract_x
  _atom_site_fract_y
  _atom_site_fract_z
  _atom_site_occupancy
  H   H1        1.0  0.006511649249378314  0.00874994301357615  0.00022312893262933553  1.0000
  Fe  Fe1       1.0  0.0008309098760879051  0.0012499999368633208  0.9996368948939691  1.0000
  Fe  Fe2       1.0  0.0008309098760879051  0.006249999405772431  0.9996368948939691  1.0000
  Co  Co1       1.0  0.0024975765347904364  0.0037499997177419045  0.9995050388567724  1.0000
  Co  Co2       1.0  0.004164243127125171  0.008749999465195188  0.9997687512768166  1.0000
  Ge  Ge1       1.0  0.0024975765347904364  0.008749999465195188  0.9995050388567724  1.0000
  Ge  Ge2       1.0  0.004164243127125171  0.0037499997177419045  0.9997687512768166  1.0000
  Fe  Fe3       1.0  0.0008563264855402221  0.0013169554566598459  3.6397265648835094e-05  1.0000
  Fe  Fe4       1.0  0.000856260515950766  0.006182922626412645  3.6385925569391216e-05  1.0000
  Co  Co3       1.0  0.0024515154259061684  0.003750140846789498  0.9998932914526679  1.0000
  Co  Co4       1.0  0.004119485481758927  0.00874995044142076  0.0001571811532514741  1.0000
  Ge  Ge3       1.0  0.0024957418634313604  0.008749675611170184  0.9999001092749464  1.0000
  Ge  Ge4       1.0  0.004169090100019688  0.0037501133637644402  0.00016491598219400732  1.0000
  Fe  Fe5       1.0  0.005830909984931091  0.0012499999368633208  0.9996368949564781  1.0000
  Fe  Fe6       1.0  0.005830909984931091  0.006249999405772431  0.9996368949564781  1.0000
  Co  Co5       1.0  0.007497576842737011  0.0037499997177419045  0.9995050389271575  1.0000
  Co  Co6       1.0  0.00916424370054293  0.008749999465195188  0.9997687510666851  1.0000
  Ge  Ge5       1.0  0.007497576842737011  0.008749999465195188  0.9995050389271575  1.0000
  Ge  Ge6       1.0  0.00916424370054293  0.0037499997177419045  0.9997687510666851  1.0000
  Fe  Fe7       1.0  0.005856326727119001  0.0013169554566598459  3.639704239074659e-05  1.0000
  Fe  Fe8       1.0  0.005856260359322767  0.006182922626412645  3.638626859495258e-05  1.0000
  Co  Co7       1.0  0.007451515468381558  0.003750140846789498  0.9998932912215339  1.0000
  Co  Co8       1.0  0.00911948525876313  0.00874995044142076  0.00015718091161628884  1.0000
  Ge  Ge7       1.0  0.00749574190590675  0.008749675611170184  0.9999001093348301  1.0000
  Ge  Ge8       1.0  0.009169090142495078  0.0037501133637644402  0.00016491575106002018  1.0000
