data_image0
_chemical_formula_structural       COSn32Au16
_chemical_formula_sum              "C1 O1 Sn32 Au16"
_cell_length_a       7.077461242675781
_cell_length_b       14.210732552287599
_cell_length_c       112.63219451904297
_cell_angle_alpha    61.22050426957764
_cell_angle_beta     90.0
_cell_angle_gamma    90.0

_space_group_name_H-M_alt    "P 1"
_space_group_IT_number       1

loop_
  _space_group_symop_operation_xyz
  'x, y, z'

loop_
  _atom_site_type_symbol
  _atom_site_label
  _atom_site_symmetry_multiplicity
  _atom_site_fract_x
  _atom_site_fract_y
  _atom_site_fract_z
  _atom_site_occupancy
  C   C1        1.0  0.0068709893707682365  0.00845092649230964  0.9995884110759912  1.0000
  O   O1        1.0  0.0068709893707682365  0.00845092649230964  0.9996949527656913  1.0000
  Sn  Sn1       1.0  0.003718299587697824  0.006006131214308734  0.9983347061142633  1.0000
  Sn  Sn2       1.0  0.003718299587697824  0.0010061313758174205  0.9989655527600652  1.0000
  Sn  Sn3       1.0  0.008718299756132924  0.006493868307147008  0.9990937130258999  1.0000
  Sn  Sn4       1.0  0.008718299756132924  0.0014938686182007761  0.9984628661608821  1.0000
  Sn  Sn5       1.0  0.006281700749172377  0.0042578888068727835  0.9987449778892287  1.0000
  Sn  Sn6       1.0  0.0050438996192154  0.009033191628721935  0.9993852198253297  1.0000
  Sn  Sn7       1.0  0.0012577585839243384  0.0031827419277623277  0.9993232326854657  1.0000
  Sn  Sn8       1.0  0.0012817004491473547  0.00824211131276328  0.998683440685402  1.0000
  Sn  Sn9       1.0  0.006425875931580854  0.003797196044575211  0.999420717667872  1.0000
  Sn  Sn10      1.0  0.006281700749172377  0.008993868450710285  0.998778289160176  1.0000
  Sn  Sn11      1.0  0.0012817004491473547  0.0035061313698356174  0.9986501294326223  1.0000
  Sn  Sn12      1.0  0.0004459515025046805  0.00828981021164443  0.9992902499566392  1.0000
  Sn  Sn13      1.0  0.003718299587697824  0.005742111169200003  0.9989988640219286  1.0000
  Sn  Sn14      1.0  0.003718299587697824  0.0007421111063910696  0.9983680171796204  1.0000
  Sn  Sn15      1.0  0.008718299756132924  0.006757888950436061  0.998429554552702  1.0000
  Sn  Sn16      1.0  0.008718299756132924  0.0017578889623996675  0.9990604012075878  1.0000
  Sn  Sn17      1.0  0.001453906916792454  0.005801317861116962  0.9986596914988891  1.0000
  Sn  Sn18      1.0  0.0015205677396033098  0.0005608745071855526  0.9992847809506685  1.0000
  Sn  Sn19      1.0  0.005665108797789755  0.0015775017044789368  0.9994231470860855  1.0000
  Sn  Sn20      1.0  0.006453907216817477  0.006698682258519102  0.9987687270757416  1.0000
  Sn  Sn21      1.0  0.007631717553942352  0.006416753292748186  0.9993846389426067  1.0000
  Sn  Sn22      1.0  0.008546093288487825  0.0016820986183240492  0.9987708194391997  1.0000
  Sn  Sn23      1.0  0.003550347685418749  0.0055976284887503435  0.9992970625270705  1.0000
  Sn  Sn24      1.0  0.0035460931200527244  0.0008179013009216073  0.9986575994862896  1.0000
  Sn  Sn25      1.0  0.008546093288487825  0.004198682114955825  0.9990841504122682  1.0000
  Sn  Sn26      1.0  0.008546093288487825  0.009198681803902058  0.9984533037755502  1.0000
  Sn  Sn27      1.0  0.0035460931200527244  0.008301318004680239  0.9983442681623624  1.0000
  Sn  Sn28      1.0  0.0035460931200527244  0.0033013180166438457  0.9989751153464455  1.0000
  Sn  Sn29      1.0  0.001453906916792454  0.0033179013697123443  0.9983421761543049  1.0000
  Sn  Sn30      1.0  0.001453906916792454  0.008317901357748738  0.998973023001155  1.0000
  Sn  Sn31      1.0  0.006453907216817477  0.004182098761887326  0.998455396102673  1.0000
  Sn  Sn32      1.0  0.006453907216817477  0.00918209845083356  0.9990862424384934  1.0000
  Au  Au1       1.0  0.004142133094199284  0.007494192099762619  0.9993105767627343  1.0000
  Au  Au2       1.0  0.004877651543249552  0.0025279635781688264  0.9987007795826713  1.0000
  Au  Au3       1.0  0.009838025775219182  0.004890363404977917  0.9993505718783732  1.0000
  Au  Au4       1.0  0.009877651185324965  0.009972036242377077  0.9987276395393242  1.0000
  Au  Au5       1.0  0.005122348793620649  0.006356444154497669  0.9985529692429224  1.0000
  Au  Au6       1.0  0.005122348793620649  0.0013564440169161948  0.9991838164360891  1.0000
  Au  Au7       1.0  0.00953501102946725  0.0012192780538483649  0.9994460211491976  1.0000
  Au  Au8       1.0  0.0001223486005124377  0.006143555965138396  0.9988754493317084  1.0000
  Au  Au9       1.0  0.005122348793620649  0.0024720364098675673  0.9984122160108331  1.0000
  Au  Au10      1.0  0.005122348793620649  0.0074720360988138  0.9990430628758509  1.0000
  Au  Au11      1.0  0.0001223486005124377  0.005027963422641942  0.9983853557351151  1.0000
  Au  Au12      1.0  0.0001223486005124377  2.7963600507122682e-05  0.9990162029091206  1.0000
  Au  Au13      1.0  0.004877651543249552  0.003643556120665279  0.9991908726500673  1.0000
  Au  Au14      1.0  0.004877651543249552  0.008643556108701673  0.9985600259951817  1.0000
  Au  Au15      1.0  0.008698079122321074  0.009207643143306854  0.9994407002727297  1.0000
  Au  Au16      1.0  0.009877651185324965  0.0038564440109343915  0.9988683931086463  1.0000
