data_image0
_chemical_formula_structural       COPt12Sb12
_chemical_formula_sum              "C1 O1 Pt12 Sb12"
_cell_length_a       7.036472085760751
_cell_length_b       9.237716145009124
_cell_length_c       98.31615447998047
_cell_angle_alpha    91.03669013883871
_cell_angle_beta     93.7925969500388
_cell_angle_gamma    94.17531279449257

_space_group_name_H-M_alt    "P 1"
_space_group_IT_number       1

loop_
  _space_group_symop_operation_xyz
  'x, y, z'

loop_
  _atom_site_type_symbol
  _atom_site_label
  _atom_site_symmetry_multiplicity
  _atom_site_fract_x
  _atom_site_fract_y
  _atom_site_fract_z
  _atom_site_occupancy
  C   C1        1.0  0.002156505571757868  0.0009017554375092344  0.0001726539882382864  1.0000
  O   O1        1.0  0.002156505571757868  0.0009017554375092344  0.0002947094569673706  1.0000
  Pt  Pt1       1.0  0.009596552324898618  0.008441147879688294  0.9993162469129844  1.0000
  Pt  Pt2       1.0  0.005787028473053261  0.0051078145787109555  0.999453394906785  1.0000
  Pt  Pt3       1.0  0.001977504886501823  0.0017744812777336183  0.9995905432049689  1.0000
  Pt  Pt4       1.0  0.00507274327646512  0.0001078146019668278  0.9996591172760722  1.0000
  Pt  Pt5       1.0  0.0026917906112110743  0.006774481229199624  0.9993848208381388  1.0000
  Pt  Pt6       1.0  0.008882267130777204  0.003441147928222287  0.9995219689791989  1.0000
  Pt  Pt7       1.0  0.008167981184360587  0.008441147879688294  0.9997276913993772  1.0000
  Pt  Pt8       1.0  0.004325169645166592  0.005030970301829155  0.9998625569011337  1.0000
  Pt  Pt9       1.0  0.0005947644729411116  0.0018247489462687532  0.9999782342180861  1.0000
  Pt  Pt10      1.0  0.0033835338832031827  0.009892185680137012  1.386374298403018e-05  1.0000
  Pt  Pt11      1.0  0.0012390055641578368  0.006762649045953694  0.9998046060245358  1.0000
  Pt  Pt12      1.0  0.007538258773378481  0.003497693671084373  0.9999165540472802  1.0000
  Sb  Sb1       1.0  0.001461631856732459  0.008718925722178063  0.9995791143307002  1.0000
  Sb  Sb2       1.0  0.00908067938418966  0.005385592421200725  0.9993048176816121  1.0000
  Sb  Sb3       1.0  0.00527115551261049  0.0020522589179984138  0.9994419659781029  1.0000
  Sb  Sb4       1.0  0.006302901944350056  0.008163370037198523  0.9994648241406692  1.0000
  Sb  Sb5       1.0  0.002493377827210781  0.004830036736221187  0.9996019721332138  1.0000
  Sb  Sb6       1.0  0.00011242545738776026  0.001496703536356336  0.9993276759455375  1.0000
  Sb  Sb7       1.0  0.009887575057669459  0.008748751479186708  0.9999917615282767  1.0000
  Sb  Sb8       1.0  0.00765210824365163  0.005385592421200725  0.9997162624711323  1.0000
  Sb  Sb9       1.0  0.003941511771900624  0.0020869904506584523  0.9998532982292574  1.0000
  Sb  Sb10      1.0  0.005066228363156709  0.007963551540098812  0.9998868217920696  1.0000
  Sb  Sb11      1.0  0.0010100118776033109  0.004758100863915444  1.287003130355308e-05  1.0000
  Sb  Sb12      1.0  0.008683854356643816  0.001496703536356336  0.9997391202744924  1.0000
