data_image0
_chemical_formula_structural       HGa4Ni4Rh8Ga4Ni4Rh8
_chemical_formula_sum              "H1 Ga8 Ni8 Rh16"
_cell_length_a       8.490474700927734
_cell_length_b       6.003672122955322
_cell_length_c       103.96189880371094
_cell_angle_alpha    90.0
_cell_angle_beta     90.0
_cell_angle_gamma    90.0

_space_group_name_H-M_alt    "P 1"
_space_group_IT_number       1

loop_
  _space_group_symop_operation_xyz
  'x, y, z'

loop_
  _atom_site_type_symbol
  _atom_site_label
  _atom_site_symmetry_multiplicity
  _atom_site_fract_x
  _atom_site_fract_y
  _atom_site_fract_z
  _atom_site_occupancy
  H   H1        1.0  0.001249999973674332  0.007395527028747528  0.00010039896817919563  1.0000
  Ga  Ga1       1.0  0.001249999973674332  0.004999996078427635  0.9997827520325477  1.0000
  Ga  Ga2       1.0  0.001249999973674332  0.005000003524451113  0.999380196976016  1.0000
  Ga  Ga3       1.0  0.0037500001404035623  0.009999996500368966  0.0  1.0000
  Ga  Ga4       1.0  0.0037500001404035623  3.4500000148495086e-09  0.9995843695423415  1.0000
  Ni  Ni1       1.0  0.001249999973674332  4.750000007580698e-09  0.9997906141291737  1.0000
  Ni  Ni2       1.0  0.001249999973674332  3.4500000148495086e-09  0.999380196976016  1.0000
  Ni  Ni3       1.0  0.0037500001404035623  0.0049999970091805694  0.9999956466929424  1.0000
  Ni  Ni4       1.0  0.0037500001404035623  0.005000003524451113  0.9995843695423415  1.0000
  Rh  Rh1       1.0  0.001249999973674332  0.0075000034251707995  0.9995843695423415  1.0000
  Rh  Rh2       1.0  0.001249999973674332  0.007395527028747528  0.9999818890271776  1.0000
  Rh  Rh3       1.0  0.0037500001404035623  0.0075000034251707995  0.999380196976016  1.0000
  Rh  Rh4       1.0  0.0037500001404035623  0.007508279059764604  0.9997870577530802  1.0000
  Rh  Rh5       1.0  0.0037500001404035623  0.002500003468605937  0.999380196976016  1.0000
  Rh  Rh6       1.0  0.0037500001404035623  0.002491716820102405  0.9997870577530802  1.0000
  Rh  Rh7       1.0  0.001249999973674332  0.002500003468605937  0.9995843695423415  1.0000
  Rh  Rh8       1.0  0.001249999973674332  0.002604484053417415  0.9999818890271776  1.0000
  Ga  Ga5       1.0  0.006250000087752227  0.004999996078427635  0.9997827520325477  1.0000
  Ga  Ga6       1.0  0.006250000087752227  0.005000003524451113  0.999380196976016  1.0000
  Ga  Ga7       1.0  0.00875000003510089  0.009999996500368966  0.0  1.0000
  Ga  Ga8       1.0  0.00875000003510089  3.4500000148495086e-09  0.9995843695423415  1.0000
  Ni  Ni5       1.0  0.006250000087752227  4.750000007580698e-09  0.9997906141291737  1.0000
  Ni  Ni6       1.0  0.006250000087752227  3.4500000148495086e-09  0.999380196976016  1.0000
  Ni  Ni7       1.0  0.00875000003510089  0.0049999970091805694  0.9999956466929424  1.0000
  Ni  Ni8       1.0  0.00875000003510089  0.005000003524451113  0.9995843695423415  1.0000
  Rh  Rh9       1.0  0.006250000087752227  0.0075000034251707995  0.9995843695423415  1.0000
  Rh  Rh10      1.0  0.006250000087752227  0.007395527028747528  0.9999818890271776  1.0000
  Rh  Rh11      1.0  0.00875000003510089  0.0075000034251707995  0.999380196976016  1.0000
  Rh  Rh12      1.0  0.00875000003510089  0.007508279059764604  0.9997870577530802  1.0000
  Rh  Rh13      1.0  0.00875000003510089  0.002500003468605937  0.999380196976016  1.0000
  Rh  Rh14      1.0  0.00875000003510089  0.002491716820102405  0.9997870577530802  1.0000
  Rh  Rh15      1.0  0.006250000087752227  0.002500003468605937  0.9995843695423415  1.0000
  Rh  Rh16      1.0  0.006250000087752227  0.002604484053417415  0.9999818890271776  1.0000
