data_image0
_chemical_formula_structural       COAu12Se12
_chemical_formula_sum              "C1 O1 Au12 Se12"
_cell_length_a       6.499781081451903
_cell_length_b       12.19883416705576
_cell_length_c       111.18081665039062
_cell_angle_alpha    120.19835075005173
_cell_angle_beta     102.97328083257422
_cell_angle_gamma    79.07850011937637

_space_group_name_H-M_alt    "P 1"
_space_group_IT_number       1

loop_
  _space_group_symop_operation_xyz
  'x, y, z'

loop_
  _atom_site_type_symbol
  _atom_site_label
  _atom_site_symmetry_multiplicity
  _atom_site_fract_x
  _atom_site_fract_y
  _atom_site_fract_z
  _atom_site_occupancy
  C   C1        1.0  0.009863966314103348  0.007835109276818318  0.00051648807314202  1.0000
  O   O1        1.0  0.009863966314103348  0.007835109276818318  0.0006244200444620753  1.0000
  Au  Au1       1.0  0.005026658597703593  0.005200485275038255  0.9998611646667486  1.0000
  Au  Au2       1.0  0.005026658089013751  0.001867151986646258  0.9995525022628167  1.0000
  Au  Au3       1.0  0.004831178216940379  0.008455007365989135  0.00018652985651074796  1.0000
  Au  Au4       1.0  2.665807917099502e-05  0.006867152362734285  0.9995525021601391  1.0000
  Au  Au5       1.0  0.00997334174217268  0.003362525347481494  0.00016160874731041943  1.0000
  Au  Au6       1.0  2.6658153558354263e-05  0.00020048534245025964  0.9998611644555587  1.0000
  Au  Au7       1.0  0.005026658437727991  0.00853381909563029  0.9997068335345608  1.0000
  Au  Au8       1.0  0.0049301763024388375  0.0047318426942939435  0.00029976621636332876  1.0000
  Au  Au9       1.0  0.005026658089013751  0.001867151986646258  1.5496087584936965e-05  1.0000
  Au  Au10      1.0  2.665807917099502e-05  0.006867152362734285  1.549571685466481e-05  1.0000
  Au  Au11      1.0  2.6658165627397337e-05  0.00353381854214225  0.9997068335594148  1.0000
  Au  Au12      1.0  0.009520549231321512  0.009799514966225761  0.0001680423097452845  1.0000
  Se  Se1       1.0  0.002786798582523006  0.007323178964175574  0.999931040981532  1.0000
  Se  Se2       1.0  0.002786798635149469  0.00398984585318359  0.9996223783267048  1.0000
  Se  Se3       1.0  0.0027792533249803935  0.0003745814573116417  0.0003341136871195361  1.0000
  Se  Se4       1.0  0.007266517918429557  0.006411125051692944  0.9996369571931817  1.0000
  Se  Se5       1.0  0.007487245762962643  0.0028047685313586  0.0002530576950291746  1.0000
  Se  Se6       1.0  0.007266517812128526  0.009744458517484953  0.9999456198668855  1.0000
  Se  Se7       1.0  0.002786798582523006  0.007323178964175574  0.9994680471567637  1.0000
  Se  Se8       1.0  0.0024970316401081967  0.0038990762982865235  7.112945041398682e-05  1.0000
  Se  Se9       1.0  0.002786798454083028  0.0006565123430415778  0.9997767097396028  1.0000
  Se  Se10      1.0  0.007266517812128526  0.009744458517484953  0.9994826260421172  1.0000
  Se  Se11      1.0  0.007262644230152429  0.006430001122644048  9.966251316781852e-05  1.0000
  Se  Se12      1.0  0.007266517971056021  0.00307779194070096  0.9997912886311754  1.0000
