data_image0
_chemical_formula_structural       HSb24Rh12
_chemical_formula_sum              "H1 Sb24 Rh12"
_cell_length_a       15.010626121558508
_cell_length_b       6.741656260700602
_cell_length_c       108.20465087890625
_cell_angle_alpha    71.5077107402605
_cell_angle_beta     72.60154484440508
_cell_angle_gamma    101.64327096410891

_space_group_name_H-M_alt    "P 1"
_space_group_IT_number       1

loop_
  _space_group_symop_operation_xyz
  'x, y, z'

loop_
  _atom_site_type_symbol
  _atom_site_label
  _atom_site_symmetry_multiplicity
  _atom_site_fract_x
  _atom_site_fract_y
  _atom_site_fract_z
  _atom_site_occupancy
  H   H1        1.0  0.006875442749385947  0.008237780872866762  0.999640882718499  1.0000
  Sb  Sb1       1.0  0.004877302702029205  0.00866407447404673  0.999405051604802  1.0000
  Sb  Sb2       1.0  0.0015439696972048753  0.008664075041597125  0.999110820393212  1.0000
  Sb  Sb3       1.0  0.008210636395070721  0.008664074994590456  0.9988165891399969  1.0000
  Sb  Sb4       1.0  0.0027129915139231203  0.0055581184519290314  0.9993457900377131  1.0000
  Sb  Sb5       1.0  0.009379658074145529  0.005558118595167581  0.9990515582355971  1.0000
  Sb  Sb6       1.0  0.0060463249316777615  0.005558118624634546  0.9996400212175459  1.0000
  Sb  Sb7       1.0  0.0017893635829063289  0.005558118457172353  0.9988229144457808  1.0000
  Sb  Sb8       1.0  0.008456030418415611  0.005558118656917655  0.999411377359176  1.0000
  Sb  Sb9       1.0  0.005122696725374095  0.005558118282039657  0.9991171461947574  1.0000
  Sb  Sb10      1.0  0.0039536750462992876  0.008664074972793992  0.9988821765425492  1.0000
  Sb  Sb11      1.0  0.0006203417661880838  0.008664074755508988  0.9994706395350837  1.0000
  Sb  Sb12      1.0  0.007287008188767055  0.008664074797661297  0.9991764082915259  1.0000
  Sb  Sb13      1.0  0.0033003727697006207  0.0006039337091979603  0.99944042203427  1.0000
  Sb  Sb14      1.0  0.009967039880496778  0.0006039344024472035  0.9991461907492978  1.0000
  Sb  Sb15      1.0  0.006633706187455262  0.0006039338819034759  0.9988519590369068  1.0000
  Sb  Sb16      1.0  0.005787820095649371  0.0036182593624851547  0.9994426380840272  1.0000
  Sb  Sb17      1.0  0.00245448667789473  0.0036182591897796395  0.9991484069041944  1.0000
  Sb  Sb18      1.0  0.009121153238117139  0.003618259478683919  0.9988541750991998  1.0000
  Sb  Sb19      1.0  0.003366293790521787  0.0036182593571873686  0.9987875445310396  1.0000
  Sb  Sb20      1.0  3.296040072596915e-05  0.0036182591321821307  0.9993760069774255  1.0000
  Sb  Sb21      1.0  0.006699626932989554  0.003618259254887538  0.999081775727726  1.0000
  Sb  Sb22      1.0  0.0008788466022164742  0.0006039337412576582  0.998785328199409  1.0000
  Sb  Sb23      1.0  0.007545513024795445  0.000603933774305859  0.9993737908578015  1.0000
  Sb  Sb24      1.0  0.004212179882327679  0.0006039339494385551  0.9990795596596758  1.0000
  Rh  Rh1       1.0  0.002377436359312498  0.009396066550403337  0.9992832007221644  1.0000
  Rh  Rh2       1.0  0.00904410319482178  0.009396066895814369  0.9989889689046341  1.0000
  Rh  Rh3       1.0  0.005710769501780264  0.009396066666602101  0.999577431914533  1.0000
  Rh  Rh4       1.0  0.004292737906264405  0.004826126711978993  0.9993864227262609  1.0000
  Rh  Rh5       1.0  0.0009594046261532009  0.004826126494693988  0.9990921909907484  1.0000
  Rh  Rh6       1.0  0.007626071324019047  0.004826126957517374  0.9987979597274583  1.0000
  Rh  Rh7       1.0  0.004289230200909911  0.004826126728653956  0.9989447658609765  1.0000
  Rh  Rh8       1.0  0.0009558969207987065  0.004826126657034681  0.9995332288506324  1.0000
  Rh  Rh9       1.0  0.007622563618664552  0.0048261269013594715  0.9992389970408092  1.0000
  Rh  Rh10      1.0  0.002373928653958003  0.009396066421412571  0.9988415438597585  1.0000
  Rh  Rh11      1.0  0.009040595489467286  0.009396066766823603  0.9994300067702753  1.0000
  Rh  Rh12      1.0  0.00570726179642577  0.009396066537611335  0.9991357750521271  1.0000
