data_image0
_chemical_formula_structural       COCa6Cu12Ge12
_chemical_formula_sum              "C1 O1 Ca6 Cu12 Ge12"
_cell_length_a       6.002978856743227
_cell_length_b       8.451925201088434
_cell_length_c       103.66620635986328
_cell_angle_alpha    95.48251680631371
_cell_angle_beta     94.84327149806576
_cell_angle_gamma    100.7760591654503

_space_group_name_H-M_alt    "P 1"
_space_group_IT_number       1

loop_
  _space_group_symop_operation_xyz
  'x, y, z'

loop_
  _atom_site_type_symbol
  _atom_site_label
  _atom_site_symmetry_multiplicity
  _atom_site_fract_x
  _atom_site_fract_y
  _atom_site_fract_z
  _atom_site_occupancy
  C   C1        1.0  0.001958040129525497  0.00473418925133782  0.00011473451426617527  1.0000
  O   O1        1.0  0.001958040129525497  0.00473418925133782  0.00023049088984954135  1.0000
  Ca  Ca1       1.0  0.0053357866672336975  0.00041666672236459056  0.9996580358200634  1.0000
  Ca  Ca2       1.0  0.0022920772347430336  0.009366711426361281  2.2116566574724355e-05  1.0000
  Ca  Ca3       1.0  0.009095260788274889  0.004904652897860495  0.9998366264803572  1.0000
  Ca  Ca4       1.0  0.0036691200969697197  0.00708333348988966  0.9991167758874396  1.0000
  Ca  Ca5       1.0  0.0014468977687936006  0.005972222230250752  0.9994776157918547  1.0000
  Ca  Ca6       1.0  0.007558008691710239  0.0015277778691023018  0.9992971959132841  1.0000
  Cu  Cu1       1.0  0.004377347633921297  0.005590396252781452  0.9999707476959533  1.0000
  Cu  Cu2       1.0  0.0007524532712042821  0.0012500000541925747  0.9997933506048516  1.0000
  Cu  Cu3       1.0  0.006863564745143177  0.006805555900782328  0.9996129306500979  1.0000
  Cu  Cu4       1.0  0.001474683515305767  0.002991103154452942  3.0509239745308277e-05  1.0000
  Cu  Cu5       1.0  0.007639850830639511  0.008577088583269101  0.999860550180018  1.0000
  Cu  Cu6       1.0  0.00380800894572229  0.004027777751685057  0.9997031406254105  1.0000
  Cu  Cu7       1.0  0.0029746755758537986  0.0023611110880290887  0.9994325106985628  1.0000
  Cu  Cu8       1.0  0.009085787112244134  0.007916667160421236  0.9992520907458733  1.0000
  Cu  Cu9       1.0  0.005196897942954755  0.003472222347667997  0.999071670794338  1.0000
  Cu  Cu10      1.0  0.009919120108262491  0.00958333359827481  0.9995227206691344  1.0000
  Cu  Cu11      1.0  0.006030231001424551  0.005138889011323965  0.9993423007196635  1.0000
  Cu  Cu12      1.0  0.002141342205985308  0.0006944444243731205  0.9991618807717149  1.0000
  Ge  Ge1       1.0  8.088010531899576e-05  0.0025186294833011145  0.9995897729810013  1.0000
  Ge  Ge2       1.0  0.0077504993208392554  0.0012132177474120807  0.9999964352055956  1.0000
  Ge  Ge3       1.0  0.0039697690718558205  0.006963073844449565  0.9997701929280275  1.0000
  Ge  Ge4       1.0  0.004643698727711721  0.0027133928544590346  0.9999105691704808  1.0000
  Ge  Ge5       1.0  0.0005906934082209151  0.008314704394968663  0.9997262979389197  1.0000
  Ge  Ge6       1.0  0.006709686651705648  0.008153044332185048  8.15310819478073e-05  1.0000
  Ge  Ge7       1.0  0.008414213806057733  0.00918529636372738  0.9990485134070615  1.0000
  Ge  Ge8       1.0  0.006191991127558082  0.008074185104088473  0.9994093533097638  1.0000
  Ge  Ge9       1.0  0.002303102332118839  0.003629740517137629  0.9992289333618153  1.0000
  Ge  Ge10      1.0  0.0028129156196225243  0.009425815654607572  0.9993654583214172  1.0000
  Ge  Ge11      1.0  0.008924026674711906  0.0049813710676567275  0.9991850384417339  1.0000
  Ge  Ge12      1.0  0.006701804619009645  0.003870259808017819  0.9995458783474811  1.0000
