data_image0
_chemical_formula_structural       HCu6Ga14Se24
_chemical_formula_sum              "H1 Cu6 Ga14 Se24"
_cell_length_a       10.787196018071352
_cell_length_b       14.619040905366191
_cell_length_c       99.13951110839844
_cell_angle_alpha    93.10818265636465
_cell_angle_beta     96.42623804424193
_cell_angle_gamma    100.35952351122472

_space_group_name_H-M_alt    "P 1"
_space_group_IT_number       1

loop_
  _space_group_symop_operation_xyz
  'x, y, z'

loop_
  _atom_site_type_symbol
  _atom_site_label
  _atom_site_symmetry_multiplicity
  _atom_site_fract_x
  _atom_site_fract_y
  _atom_site_fract_z
  _atom_site_occupancy
  H   H1        1.0  0.0018911068512447939  0.009878930476857211  0.0002262818213624523  1.0000
  Cu  Cu1       1.0  0.008410343029037017  0.00967013244123352  0.9996589847546239  1.0000
  Cu  Cu2       1.0  0.004252403056964874  0.0014927598952240854  0.9994413492381334  1.0000
  Cu  Cu3       1.0  0.0009514820118785903  0.0018964087405038785  0.9995654334200614  1.0000
  Cu  Cu4       1.0  0.008721009122684649  0.0005342077287388601  0.9999990826793064  1.0000
  Cu  Cu5       1.0  0.004252403081470873  0.0027427599367920645  0.9998087546415901  1.0000
  Cu  Cu6       1.0  0.0010972205289290528  0.0031196978484314443  0.9999348747611031  1.0000
  Ga  Ga1       1.0  0.00012226144926975925  0.004428722081615302  0.9996010174575165  1.0000
  Ga  Ga2       1.0  0.00513274302036995  0.008815400231131264  0.9994167595163858  1.0000
  Ga  Ga3       1.0  0.009367106747648358  0.007045835268461305  0.9996325240699538  1.0000
  Ga  Ga4       1.0  0.00584876533650751  0.007373584751654938  0.9997568406769686  1.0000
  Ga  Ga5       1.0  0.00344941939967211  0.003986186781921481  0.9994801638178772  1.0000
  Ga  Ga6       1.0  0.0075242713553499  0.0022934906245419212  0.9996871079951514  1.0000
  Ga  Ga7       1.0  0.001619665973263854  0.009159741053440326  0.9995400698484321  1.0000
  Ga  Ga8       1.0  0.0003474703248612951  0.0058700865485222685  0.9999741787660507  1.0000
  Ga  Ga9       1.0  0.005132742978282387  6.540044757702788e-05  0.9997841648362589  1.0000
  Ga  Ga10      1.0  0.009488530108847858  0.008294703621808012  1.467077755081501e-05  1.0000
  Ga  Ga11      1.0  0.005959497296139963  0.008469920446204652  0.00014029711065515816  1.0000
  Ga  Ga12      1.0  0.003463893084329238  0.005280525827615132  0.9998614578988452  1.0000
  Ga  Ga13      1.0  0.007955471098619611  0.003874835000065179  1.9201527872232824e-05  1.0000
  Ga  Ga14      1.0  0.0018275168020064484  0.00045846684457165766  0.9999166150304892  1.0000
  Se  Se1       1.0  0.008911149784648948  0.005476216440341771  0.9997286800303518  1.0000
  Se  Se2       1.0  0.00570176460308741  0.004663216922098016  0.9994851665248505  1.0000
  Se  Se3       1.0  0.004762427915989834  0.0072600007693401514  0.9995138875608842  1.0000
  Se  Se4       1.0  0.0023758655446993525  0.0051727379803362845  0.9996015045970493  1.0000
  Se  Se5       1.0  0.004009419661053341  0.009934599353188949  0.9995415435885147  1.0000
  Se  Se6       1.0  0.0015728848545865125  0.007686540710813768  0.9996389372925164  1.0000
  Se  Se7       1.0  0.0006705049135363806  0.0003653650291325854  0.9996629294247069  1.0000
  Se  Se8       1.0  0.008178869654203605  0.008134447632560618  0.9997579149826615  1.0000
  Se  Se9       1.0  0.00987773840805822  0.002895453671506687  0.9996994882827147  1.0000
  Se  Se10      1.0  0.007411024058732338  0.009475017545012468  0.999423529380343  1.0000
  Se  Se11      1.0  0.006514493320625722  0.002123774412832348  0.9994496931923774  1.0000
  Se  Se12      1.0  0.0032025443190519727  0.0024786055640768066  0.9995768393307357  1.0000
  Se  Se13      1.0  0.009093456705791234  0.006733542318563422  9.632364670309138e-05  1.0000
  Se  Se14      1.0  0.005711448172122024  0.005957461400640028  0.999866954636752  1.0000
  Se  Se15      1.0  0.004830406969151894  0.00853926051114514  0.999877128370361  1.0000
  Se  Se16      1.0  0.002515919907033941  0.00648768487109138  0.9999629126141932  1.0000
  Se  Se17      1.0  0.00409006974473625  0.0011754400776968707  0.9999079904629359  1.0000
  Se  Se18      1.0  0.0016925786263929973  0.008953873560317998  6.079968651465909e-06  1.0000
  Se  Se19      1.0  0.0007088219974573085  0.0015796860729712899  1.8231768223097026e-05  1.0000
  Se  Se20      1.0  0.008393714671352281  0.009311569134997632  0.00014264735635799143  1.0000
  Se  Se21      1.0  0.000209658235294091  0.004269891614238915  7.027411771074354e-05  1.0000
  Se  Se22      1.0  0.007411023903760511  0.0007250173189865834  0.9997909349959135  1.0000
  Se  Se23      1.0  0.006514493311991386  0.003373774324500393  0.9998170985943919  1.0000
  Se  Se24      1.0  0.0033197735164847667  0.0037783206484212285  0.9999562371044555  1.0000
