data_image0
_chemical_formula_structural       HMo8As12Mo8As12Mo8As12
_chemical_formula_sum              "H1 Mo24 As36"
_cell_length_a       15.030234250558854
_cell_length_b       9.747108459472656
_cell_length_c       106.00562286376953
_cell_angle_alpha    90.0
_cell_angle_beta     115.82054334051968
_cell_angle_gamma    59.31898370136585

_space_group_name_H-M_alt    "P 1"
_space_group_IT_number       1

loop_
  _space_group_symop_operation_xyz
  'x, y, z'

loop_
  _atom_site_type_symbol
  _atom_site_label
  _atom_site_symmetry_multiplicity
  _atom_site_fract_x
  _atom_site_fract_y
  _atom_site_fract_z
  _atom_site_occupancy
  H   H1        1.0  0.0035349748736570514  0.0048111943507391465  0.00021830569472297594  1.0000
  Mo  Mo1       1.0  0.0025133649139011255  0.0014207145373178736  0.9998976912599821  1.0000
  Mo  Mo2       1.0  0.007446173096363745  0.004058240815844289  0.9998987860106967  1.0000
  Mo  Mo3       1.0  0.0015624040770066314  0.008782287369533964  0.00012501266425740857  1.0000
  Mo  Mo4       1.0  0.008594020389204303  0.006288368781496329  0.9999654376009289  1.0000
  Mo  Mo5       1.0  0.007408940268972619  0.0014601098812871132  4.111612754910603e-05  1.0000
  Mo  Mo6       1.0  0.0024018093135384283  0.004059387284714339  4.852555641321583e-05  1.0000
  Mo  Mo7       1.0  0.0065308785674529956  0.009077186829073098  0.9999981625920938  1.0000
  Mo  Mo8       1.0  0.00309414321074299  0.006801466018769121  0.00010343942702675293  1.0000
  As  As1       1.0  0.0036966619359808206  0.008172116006784943  0.9999874716007372  1.0000
  As  As2       1.0  0.0062138166436861465  0.00914983241645706  0.00022248771025087317  1.0000
  As  As3       1.0  0.0008533276067417701  0.004622086669966428  0.00010551733232663656  1.0000
  As  As4       1.0  0.009121883619031892  0.0009488599614504368  1.5489404217876097e-05  1.0000
  As  As5       1.0  0.007742446134459785  0.005808249880643786  0.00010912507548388222  1.0000
  As  As6       1.0  0.0012170077710592616  0.0013054067128162165  0.9999955613644524  1.0000
  As  As7       1.0  0.008660557523956282  0.008209867672042017  0.00013908814356027195  1.0000
  As  As8       1.0  0.0009931120572809603  0.007321354581124095  0.9999514125008601  1.0000
  As  As9       1.0  0.005875467836826472  0.004456104677396866  0.9999553727497749  1.0000
  As  As10      1.0  0.00398902452452142  0.0010299352418314004  0.00015463501873087945  1.0000
  As  As11      1.0  0.0039674157813498  0.0040499124101415485  1.3238189618726148e-05  1.0000
  As  As12      1.0  0.006216092057410373  0.0015307684871963196  0.00015714250663447063  1.0000
  Mo  Mo9       1.0  0.002520266356026793  0.0014228200169073646  0.999597114231269  1.0000
  Mo  Mo10      1.0  0.007480886524716501  0.0039893652081610335  0.9995946821690846  1.0000
  Mo  Mo11      1.0  0.0014953087840702429  0.009054200279808257  0.999842596553855  1.0000
  Mo  Mo12      1.0  0.008505844096673052  0.00635798531216677  0.9996579793869729  1.0000
  Mo  Mo13      1.0  0.007520266422872084  0.0014228197808583089  0.9997515041630721  1.0000
  Mo  Mo14      1.0  0.002480886123644752  0.0039893653249944  0.9997490720382544  1.0000
  Mo  Mo15      1.0  0.006495308850915534  0.009054200043759198  0.9996882069451838  1.0000
  Mo  Mo16      1.0  0.0035058436956013016  0.006357985046805734  0.9998123692561427  1.0000
  As  As13      1.0  0.0037278967353615226  0.00817634252869538  0.9996716925800131  1.0000
  As  As14      1.0  0.006273256145381771  0.0072358422988908384  0.9998288836419539  1.0000
  As  As15      1.0  0.0008544798524547944  0.004562017886047909  0.9998030215610714  1.0000
  As  As16      1.0  0.009146672526948812  0.0008501677334885598  0.9996975543487957  1.0000
  As  As17      1.0  0.00895422493258786  0.003994190632980729  0.9998400596181618  1.0000
  As  As18      1.0  0.0010469273632591326  0.0014179952433976196  0.9996605165676843  1.0000
  As  As19      1.0  0.008727896802206814  0.008176343057035131  0.9998260825118161  1.0000
  As  As20      1.0  0.0012732557443100219  0.007235842797918606  0.9996744936895102  1.0000
  As  As21      1.0  0.005854479752186857  0.00456201778148821  0.99964863194208  1.0000
  As  As22      1.0  0.004146672460103522  0.0008501675873432127  0.999851944238606  1.0000
  As  As23      1.0  0.003954224865742569  0.003994190104640979  0.9996856696863586  1.0000
  As  As24      1.0  0.006046927346547809  0.0014179952641904434  0.9998149064943272  1.0000
  Mo  Mo17      1.0  0.002520266356026793  0.0014228200169073646  0.9992883344096556  1.0000
  Mo  Mo18      1.0  0.007480886524716501  0.0039893652081610335  0.9992859026286104  1.0000
  Mo  Mo19      1.0  0.0014953087840702429  0.009054200279808257  0.9995338170133806  1.0000
  Mo  Mo20      1.0  0.008505844096673052  0.00635798531216677  0.9993491998464986  1.0000
  Mo  Mo21      1.0  0.007520266422872084  0.0014228197808583089  0.9994427243414588  1.0000
  Mo  Mo22      1.0  0.002480886123644752  0.0039893653249944  0.9994402924977801  1.0000
  Mo  Mo23      1.0  0.006495308850915534  0.009054200043759198  0.9993794271235704  1.0000
  Mo  Mo24      1.0  0.0035058436956013016  0.006357985046805734  0.9995035897156684  1.0000
  As  As25      1.0  0.0037278967353615226  0.00817634252869538  0.9993629127583997  1.0000
  As  As26      1.0  0.006273256145381771  0.0072358422988908384  0.9995201038203405  1.0000
  As  As27      1.0  0.0008544798524547944  0.004562017886047909  0.9994942420205971  1.0000
  As  As28      1.0  0.009146672526948812  0.0008501677334885598  0.9993887748083214  1.0000
  As  As29      1.0  0.00895422493258786  0.003994190632980729  0.9995312797965484  1.0000
  As  As30      1.0  0.0010469273632591326  0.0014179952433976196  0.99935173702721  1.0000
  As  As31      1.0  0.008727896802206814  0.008176343057035131  0.9995173026902029  1.0000
  As  As32      1.0  0.0012732557443100219  0.007235842797918606  0.999365714149036  1.0000
  As  As33      1.0  0.005854479752186857  0.00456201778148821  0.9993398521204667  1.0000
  As  As34      1.0  0.004146672460103522  0.0008501675873432127  0.9995431646981316  1.0000
  As  As35      1.0  0.003954224865742569  0.003994190104640979  0.9993768898647454  1.0000
  As  As36      1.0  0.006046927346547809  0.0014179952641904434  0.999506126672714  1.0000
