data_image0
_chemical_formula_structural       HCa2Pb6
_chemical_formula_sum              "H1 Ca2 Pb6"
_cell_length_a       5.024930953979492
_cell_length_b       7.106325149536133
_cell_length_c       98.42530059814453
_cell_angle_alpha    90.0
_cell_angle_beta     90.0
_cell_angle_gamma    90.0

_space_group_name_H-M_alt    "P 1"
_space_group_IT_number       1

loop_
  _space_group_symop_operation_xyz
  'x, y, z'

loop_
  _atom_site_type_symbol
  _atom_site_label
  _atom_site_symmetry_multiplicity
  _atom_site_fract_x
  _atom_site_fract_y
  _atom_site_fract_z
  _atom_site_occupancy
  H   H1        1.0  0.002500003276817785  0.008750000901661432  0.0001331694200615915  1.0000
  Ca  Ca1       1.0  0.002499997160585494  0.0062499993709338834  0.9996674549389414  1.0000
  Ca  Ca2       1.0  0.0025000006820525707  0.0012500040417497927  0.0  1.0000
  Pb  Pb1       1.0  0.007499996856627283  0.0037499991507607437  0.9994869543977347  1.0000
  Pb  Pb2       1.0  0.007500002787519202  0.008641308761317485  0.999849903942011  1.0000
  Pb  Pb3       1.0  0.002500005686242627  0.006249997798268595  1.5985562640645337e-05  1.0000
  Pb  Pb4       1.0  0.002499997160585494  0.001249999192698485  0.9996674549389414  1.0000
  Pb  Pb5       1.0  0.007499996856627283  0.008749999328996142  0.9994869543977347  1.0000
  Pb  Pb6       1.0  0.007499998339350262  0.0038586912911046894  0.9998499033364285  1.0000
