data_image0
_chemical_formula_structural       COAl4Au8Ti4
_chemical_formula_sum              "C1 O1 Al4 Au8 Ti4"
_cell_length_a       4.593358516693115
_cell_length_b       4.593358516693115
_cell_length_c       108.97593688964844
_cell_angle_alpha    90.0
_cell_angle_beta     90.0
_cell_angle_gamma    90.0

_space_group_name_H-M_alt    "P 1"
_space_group_IT_number       1

loop_
  _space_group_symop_operation_xyz
  'x, y, z'

loop_
  _atom_site_type_symbol
  _atom_site_label
  _atom_site_symmetry_multiplicity
  _atom_site_fract_x
  _atom_site_fract_y
  _atom_site_fract_z
  _atom_site_occupancy
  C   C1        1.0  0.00749999662617068  0.005000000048661  0.00015893888338688858  1.0000
  O   O1        1.0  0.00749999662617068  0.005000000048661  0.0002690546122032578  1.0000
  Al  Al1       1.0  9.999999901309187e-11  0.002499999618822168  0.999558993961051  1.0000
  Al  Al2       1.0  0.005000000859677663  0.007499999870237334  0.999868853953326  1.0000
  Al  Al3       1.0  9.999999901309187e-11  0.002499999618822168  0.9989628998567353  1.0000
  Al  Al4       1.0  0.005000000048661  0.007499999870237334  0.9992609464986788  1.0000
  Au  Au1       1.0  0.010000000097322  0.007500000681253997  0.0  1.0000
  Au  Au2       1.0  0.004999994371544356  0.002499999821576334  0.0  1.0000
  Au  Au3       1.0  0.005000000048661  0.002499999618822168  0.9997080171452847  1.0000
  Au  Au4       1.0  9.999999901309187e-11  0.007499999870237334  0.9997080171452847  1.0000
  Au  Au5       1.0  9.999999901309187e-11  0.007499999870237334  0.9994099702298649  1.0000
  Au  Au6       1.0  0.005000000048661  0.002499999618822168  0.9994099702298649  1.0000
  Au  Au7       1.0  0.005000000048661  0.002499999618822168  0.9991119233144451  1.0000
  Au  Au8       1.0  9.999999901309187e-11  0.007499999870237334  0.9991119233144451  1.0000
  Ti  Ti1       1.0  0.005000000048661  0.007499999870237334  0.999558993961051  1.0000
  Ti  Ti2       1.0  0.009999995231222018  0.002500000227084666  0.9998573728765472  1.0000
  Ti  Ti3       1.0  0.005000000048661  0.007499999870237334  0.9989628998567353  1.0000
  Ti  Ti4       1.0  9.999999901309187e-11  0.002499999618822168  0.9992609464986788  1.0000
