data_image0
_chemical_formula_structural       COCo12Sb12
_chemical_formula_sum              "C1 O1 Co12 Sb12"
_cell_length_a       6.534097540705637
_cell_length_b       8.551571247319021
_cell_length_c       99.91442108154297
_cell_angle_alpha    91.04170237840498
_cell_angle_beta     95.33542865983964
_cell_angle_gamma    94.77438523894693

_space_group_name_H-M_alt    "P 1"
_space_group_IT_number       1

loop_
  _space_group_symop_operation_xyz
  'x, y, z'

loop_
  _atom_site_type_symbol
  _atom_site_label
  _atom_site_symmetry_multiplicity
  _atom_site_fract_x
  _atom_site_fract_y
  _atom_site_fract_z
  _atom_site_occupancy
  C   C1        1.0  0.007083932785476847  0.009397407040439352  0.00018709386801632951  1.0000
  O   O1        1.0  0.007083932785476847  0.009397407040439352  0.0003071968940740145  1.0000
  Co  Co1       1.0  0.0050344072966257295  4.746349785827098e-05  0.9996837031965355  1.0000
  Co  Co2       1.0  0.0025344072336333213  0.006714130232578576  0.9994342028292296  1.0000
  Co  Co3       1.0  0.008784407387819743  0.0033807967593116567  0.9995589527867722  1.0000
  Co  Co4       1.0  0.009409407018759091  0.008380796531919579  0.9993718275446959  1.0000
  Co  Co5       1.0  0.005659406952844215  0.005047463495945116  0.9994965779549638  1.0000
  Co  Co6       1.0  0.0019094072796184654  0.001714130132001311  0.9996213280688309  1.0000
  Co  Co7       1.0  0.0035912474241933763  0.009952536696463565  3.732477382278915e-05  1.0000
  Co  Co8       1.0  0.0012415416400371776  0.006724037967788183  0.9998127462596655  1.0000
  Co  Co9       1.0  0.007644539341657358  0.003427302812166923  0.9999194745559714  1.0000
  Co  Co10      1.0  0.008159407110376965  0.008380796531919579  0.9997460782165991  1.0000
  Co  Co11      1.0  0.004320460839999357  0.005005542891799209  0.9998642700686688  1.0000
  Co  Co12      1.0  0.000824053147594871  0.0017448783511505171  0.999975056895794  1.0000
  Sb  Sb1       1.0  0.006180240699441967  0.008103018742480669  0.9995069735774392  1.0000
  Sb  Sb2       1.0  0.002430240633527089  0.004769685706506206  0.9996317239877072  1.0000
  Sb  Sb3       1.0  0.009930240851505115  0.001436352342562401  0.9993822235727402  1.0000
  Sb  Sb4       1.0  0.0013885739479076878  0.008658574321358489  0.9996109320438333  1.0000
  Sb  Sb5       1.0  0.008888573844773047  0.005325241285384026  0.9993614319257025  1.0000
  Sb  Sb6       1.0  0.005138573729831967  0.001991907812117107  0.9994861820367135  1.0000
  Sb  Sb7       1.0  0.0049500704185013525  0.008035115969679861  0.9998857879226024  1.0000
  Sb  Sb8       1.0  0.0011716042259404022  0.004701647373043574  6.492469309853361e-06  1.0000
  Sb  Sb9       1.0  0.00868024037051128  0.001436352342562401  0.9997564739428829  1.0000
  Sb  Sb10      1.0  6.975934177474042e-05  0.00873605292439366  0.9999885285804965  1.0000
  Sb  Sb11      1.0  0.007638573936390921  0.005325241285384026  0.9997356822993273  1.0000
  Sb  Sb12      1.0  0.004090051862090246  0.0019805720983875285  0.9998644038117781  1.0000
