data_image0
_chemical_formula_structural       HAl12Fe6Ir6
_chemical_formula_sum              "H1 Al12 Fe6 Ir6"
_cell_length_a       5.932621479034424
_cell_length_b       7.265947840525379
_cell_length_c       101.9481430053711
_cell_angle_alpha    94.34775300850562
_cell_angle_beta     90.0
_cell_angle_gamma    114.09484216359354

_space_group_name_H-M_alt    "P 1"
_space_group_IT_number       1

loop_
  _space_group_symop_operation_xyz
  'x, y, z'

loop_
  _atom_site_type_symbol
  _atom_site_label
  _atom_site_symmetry_multiplicity
  _atom_site_fract_x
  _atom_site_fract_y
  _atom_site_fract_z
  _atom_site_occupancy
  H   H1        1.0  0.0037101464453733897  0.0020217855764998838  0.0001320587725983175  1.0000
  Al  Al1       1.0  0.0067689048413144375  0.008138735344655385  0.9994410708785302  1.0000
  Al  Al2       1.0  0.005127575100462822  0.0048338231643663045  0.9999634842661954  1.0000
  Al  Al3       1.0  0.0009355713752422279  0.006472068399952302  0.9997022180378902  1.0000
  Al  Al4       1.0  0.00010609519377940777  0.004834948648266896  0.9999634540985287  1.0000
  Al  Al5       1.0  0.005935571368962895  0.006472068399952302  0.9997022180378902  1.0000
  Al  Al6       1.0  0.0017689048475937697  0.008138735344655385  0.9994410708785302  1.0000
  Al  Al7       1.0  0.003852238424741165  0.00230540188357559  0.9995716441805592  1.0000
  Al  Al8       1.0  0.009685571592933229  0.003972068546485008  0.9993104973120049  1.0000
  Al  Al9       1.0  0.008004431886377521  0.0006112647765158912  0.9998280910742829  1.0000
  Al  Al10      1.0  0.004685571442229248  0.003972068546485008  0.9993104973120049  1.0000
  Al  Al11      1.0  0.003006875905413773  0.0006113029595575864  0.9998281707938719  1.0000
  Al  Al12      1.0  0.00885223826147852  0.00230540188357559  0.9995716441805592  1.0000
  Fe  Fe1       1.0  0.0007272382370822787  0.0010554018159451102  0.9993757841091836  1.0000
  Fe  Fe2       1.0  0.009095862215955612  0.007792060941843343  0.999904439363845  1.0000
  Fe  Fe3       1.0  0.004893904917515172  0.009388735412285866  0.9996369309499058  1.0000
  Fe  Fe4       1.0  0.007810571410499645  0.005222068332321822  0.9995063576741863  1.0000
  Fe  Fe5       1.0  0.006070824966842407  0.0017382891726289097  1.1134325236427925e-05  1.0000
  Fe  Fe6       1.0  0.0019773362453471693  0.0035557305226202136  0.9997655532744999  1.0000
  Ir  Ir1       1.0  0.005727238466277916  0.0010554018159451102  0.9993757841091836  1.0000
  Ir  Ir2       1.0  0.004077375794085748  0.0077538091424938504  0.999897855254644  1.0000
  Ir  Ir3       1.0  0.009893904950481668  0.009388735412285866  0.9996369309499058  1.0000
  Ir  Ir4       1.0  0.0028105714364018925  0.005222068332321822  0.9995063576741863  1.0000
  Ir  Ir5       1.0  0.0011318586404937278  0.0018700632173204294  1.010402951379056e-05  1.0000
  Ir  Ir6       1.0  0.006978446478076666  0.0035580426396468415  0.9997648980892382  1.0000
