data_image0
_chemical_formula_structural       HRh12Sn4
_chemical_formula_sum              "H1 Rh12 Sn4"
_cell_length_a       4.790399727964856
_cell_length_b       5.726468086242676
_cell_length_c       106.7532958984375
_cell_angle_alpha    90.0
_cell_angle_beta     92.12156721750635
_cell_angle_gamma    90.0

_space_group_name_H-M_alt    "P 1"
_space_group_IT_number       1

loop_
  _space_group_symop_operation_xyz
  'x, y, z'

loop_
  _atom_site_type_symbol
  _atom_site_label
  _atom_site_symmetry_multiplicity
  _atom_site_fract_x
  _atom_site_fract_y
  _atom_site_fract_z
  _atom_site_occupancy
  H   H1        1.0  0.004760842938907156  0.00499984135958177  0.00012190730462061977  1.0000
  Rh  Rh1       1.0  0.005614877914916464  0.002500013218950621  0.9995868773476372  1.0000
  Rh  Rh2       1.0  0.009385122707636282  0.007529027670615226  0.9997985058297549  1.0000
  Rh  Rh3       1.0  0.0018648777592782772  0.007500013635295523  0.9993717007445048  1.0000
  Rh  Rh4       1.0  0.0029651986867747886  0.0025803856747501973  4.925827245665046e-06  1.0000
  Rh  Rh5       1.0  0.005614877914916464  0.007500013635295523  0.9995868773476372  1.0000
  Rh  Rh6       1.0  0.009384946058294843  0.0024710030868643684  0.9997985200531451  1.0000
  Rh  Rh7       1.0  0.0018648777592782772  0.002500013218950621  0.9993717007445048  1.0000
  Rh  Rh8       1.0  0.002965324948253416  0.007419428128003408  4.920453592008004e-06  1.0000
  Rh  Rh9       1.0  0.0006148777398235038  0.005000013101853618  0.9995868771484377  1.0000
  Rh  Rh10      1.0  0.00444065900383094  0.009999987171372723  0.9998053069029896  1.0000
  Rh  Rh11      1.0  0.006864878226192836  1.305000000044445e-08  0.999371700944189  1.0000
  Rh  Rh12      1.0  0.00795017520501907  0.00499970995072225  9.309163953675103e-06  1.0000
  Sn  Sn1       1.0  0.006864878226192836  0.005000013101853618  0.999371700944189  1.0000
  Sn  Sn2       1.0  0.0006148777398235038  1.305000000044445e-08  0.9995868771484377  1.0000
  Sn  Sn3       1.0  0.00798414479555866  0.009999731509581678  2.887343906986406e-05  1.0000
  Sn  Sn4       1.0  0.0044355867553397595  0.004999893727963905  0.9997966866393646  1.0000
