data_image0
_chemical_formula_structural       COCa8Zn8Ca8Zn8
_chemical_formula_sum              "C1 O1 Ca16 Zn16"
_cell_length_a       11.603652954101562
_cell_length_b       6.211885045038831
_cell_length_c       107.27130889892578
_cell_angle_alpha    89.71678957218204
_cell_angle_beta     90.0
_cell_angle_gamma    90.0

_space_group_name_H-M_alt    "P 1"
_space_group_IT_number       1

loop_
  _space_group_symop_operation_xyz
  'x, y, z'

loop_
  _atom_site_type_symbol
  _atom_site_label
  _atom_site_symmetry_multiplicity
  _atom_site_fract_x
  _atom_site_fract_y
  _atom_site_fract_z
  _atom_site_occupancy
  C   C1        1.0  0.002500063188001179  0.0037375983722749517  1.8323801620266305e-05  1.0000
  O   O1        1.0  0.002500063188001179  0.0037375983722749517  0.0001301899142077602  1.0000
  Ca  Ca1       1.0  0.008541939691568688  0.0037434497525275757  0.999136676448301  1.0000
  Ca  Ca2       1.0  0.008541939691568688  0.008743449380706755  0.9994262170677124  1.0000
  Ca  Ca3       1.0  0.006458060924836973  0.008743449380706755  0.9991366763278153  1.0000
  Ca  Ca4       1.0  0.006458060924836973  0.0037434497525275757  0.99942621746602  1.0000
  Ca  Ca5       1.0  0.0035419394861001346  0.0012434497885102358  0.9992814466007133  1.0000
  Ca  Ca6       1.0  0.0035419394861001346  0.006243449716544915  0.9989919060180666  1.0000
  Ca  Ca7       1.0  0.0014580607193684194  0.0012434497885102358  0.9989919061386381  1.0000
  Ca  Ca8       1.0  0.0014580607193684194  0.006243449716544915  0.9992814467579638  1.0000
  Zn  Zn1       1.0  0.005650816070755809  0.0037434497525275757  0.999136676448301  1.0000
  Zn  Zn2       1.0  0.005650816070755809  0.008743449380706755  0.9994262170677124  1.0000
  Zn  Zn3       1.0  0.009349183903560623  0.008743449380706755  0.9991366763278153  1.0000
  Zn  Zn4       1.0  0.009349183903560623  0.0037434497525275757  0.99942621746602  1.0000
  Zn  Zn5       1.0  0.0006508161060707164  0.0012434497885102358  0.9992814466007133  1.0000
  Zn  Zn6       1.0  0.0006508161060707164  0.006243449716544915  0.9989919060180666  1.0000
  Zn  Zn7       1.0  0.004349184019136683  0.0012434497885102358  0.9989919061386381  1.0000
  Zn  Zn8       1.0  0.004349184019136683  0.006243449716544915  0.9992814467579638  1.0000
  Ca  Ca9       1.0  0.008541939691568688  0.0037434497525275757  0.9997157579280952  1.0000
  Ca  Ca10      1.0  0.008550787039076503  0.008756550067559123  0.9999974935577379  1.0000
  Ca  Ca11      1.0  0.006458060924836973  0.008743449380706755  0.9997157580854316  1.0000
  Ca  Ca12      1.0  0.006449776047495125  0.0037566646843259456  0.9999973905735854  1.0000
  Ca  Ca13      1.0  0.0035463753595494224  0.0012512832136265394  0.9998568502541244  1.0000
  Ca  Ca14      1.0  0.0035419394861001346  0.006243449716544915  0.9995709877756829  1.0000
  Ca  Ca15      1.0  0.0014580607193684194  0.0012434497885102358  0.9995709876184324  1.0000
  Ca  Ca16      1.0  0.0014537510164529357  0.006251478647448075  0.9998568642465107  1.0000
  Zn  Zn9       1.0  0.005650816070755809  0.0037434497525275757  0.9997157579280952  1.0000
  Zn  Zn10      1.0  0.005722071281027395  0.008742593593106007  0.9999973497513188  1.0000
  Zn  Zn11      1.0  0.009349183903560623  0.008743449380706755  0.9997157580854316  1.0000
  Zn  Zn12      1.0  0.009277896588827508  0.0037427280003359147  0.9999972801001334  1.0000
  Zn  Zn13      1.0  0.0006724477310729149  0.0012755265309077042  0.9998632576675953  1.0000
  Zn  Zn14      1.0  0.0006508161060707164  0.006243449716544915  0.9995709877756829  1.0000
  Zn  Zn15      1.0  0.004349184019136683  0.0012434497885102358  0.9995709876184324  1.0000
  Zn  Zn16      1.0  0.004327613352480811  0.006275469486397134  0.9998632689540308  1.0000
