data_image0
_chemical_formula_structural       COAg4As4Se8
_chemical_formula_sum              "C1 O1 Ag4 As4 Se8"
_cell_length_a       6.8650431632995605
_cell_length_b       7.023939157647917
_cell_length_c       101.7082748413086
_cell_angle_alpha    90.0
_cell_angle_beta     90.0
_cell_angle_gamma    109.01360409463993

_space_group_name_H-M_alt    "P 1"
_space_group_IT_number       1

loop_
  _space_group_symop_operation_xyz
  'x, y, z'

loop_
  _atom_site_type_symbol
  _atom_site_label
  _atom_site_symmetry_multiplicity
  _atom_site_fract_x
  _atom_site_fract_y
  _atom_site_fract_z
  _atom_site_occupancy
  C   C1        1.0  0.007500007061886049  0.007499996701456917  0.0001605848214630638  1.0000
  O   O1        1.0  0.007500007061886049  0.007499996701456917  0.00027856897499209935  1.0000
  Ag  Ag1       1.0  0.0050000069933908466  0.005000000044878138  0.9996051956009729  1.0000
  Ag  Ag2       1.0  6.971684994877352e-09  0.005000000044878138  0.9994103476365466  1.0000
  Ag  Ag3       1.0  0.005000005413122026  0.004999996118041134  0.9999899770373533  1.0000
  Ag  Ag4       1.0  0.00999999323629531  0.0049999888253438405  0.9998235617501607  1.0000
  As  As1       1.0  0.005000007142774469  2.000000019079868e-10  0.9994103476365466  1.0000
  As  As2       1.0  7.050000300543889e-09  2.000000019079868e-10  0.9996051956009729  1.0000
  As  As3       1.0  0.005000006910673891  0.010000000089756276  0.9998377303268964  1.0000
  As  As4       1.0  8.311584301363708e-09  0.009999997845849415  0.9999906005789692  1.0000
  Se  Se1       1.0  0.007546645019689593  0.007639913830745373  0.9994103476365466  1.0000
  Se  Se2       1.0  0.0025466449232054104  0.007639913830745373  0.9996051956009729  1.0000
  Se  Se3       1.0  0.007453369082294071  0.002360086539499259  0.9996051956009729  1.0000
  Se  Se4       1.0  0.0024533691962497954  0.002360086539499259  0.9994103476365466  1.0000
  Se  Se5       1.0  0.007652481248642456  0.007758066746427683  0.9998303427652332  1.0000
  Se  Se6       1.0  0.0026415818053269016  0.00764833016439831  0.9999999994139647  1.0000
  Se  Se7       1.0  0.007358428742023404  0.0023516683826719986  0.0  1.0000
  Se  Se8       1.0  0.00234753411766801  0.002241935446991273  0.9998303427652332  1.0000
