data_image0
_chemical_formula_structural       COAl12Ni24
_chemical_formula_sum              "C1 O1 Al12 Ni24"
_cell_length_a       6.445935671057636
_cell_length_b       8.633506693433478
_cell_length_c       100.94991302490234
_cell_angle_alpha    90.13547110947293
_cell_angle_beta     85.07558735624197
_cell_angle_gamma    90.32523107219528

_space_group_name_H-M_alt    "P 1"
_space_group_IT_number       1

loop_
  _space_group_symop_operation_xyz
  'x, y, z'

loop_
  _atom_site_type_symbol
  _atom_site_label
  _atom_site_symmetry_multiplicity
  _atom_site_fract_x
  _atom_site_fract_y
  _atom_site_fract_z
  _atom_site_occupancy
  C   C1        1.0  0.009940196331305594  0.00501645900983306  0.0001109096643528475  1.0000
  O   O1        1.0  0.009940196331305594  0.00501645900983306  0.00022978014531195579  1.0000
  Al  Al1       1.0  0.007120293226521028  0.008436525604276546  0.9995150131626349  1.0000
  Al  Al2       1.0  0.00545362647692403  0.005103191776156707  0.9992595242872674  1.0000
  Al  Al3       1.0  0.0012869596601087297  0.0017698582716617623  0.9993872686772057  1.0000
  Al  Al4       1.0  0.0015658920144330432  0.00827713559705662  0.9993933771542529  1.0000
  Al  Al5       1.0  0.007399225328643713  0.004943801768936782  0.9995211214843638  1.0000
  Al  Al6       1.0  0.005732558582233462  0.0016104683723168027  0.9992656326090661  1.0000
  Al  Al7       1.0  0.00473674183141894  0.00843012042035736  0.9999012324355412  1.0000
  Al  Al8       1.0  0.0029536264073156656  0.005103191776156707  0.9996427575525209  1.0000
  Al  Al9       1.0  0.00887915930951685  0.0017865450184908391  0.9997729364333879  1.0000
  Al  Al10      1.0  0.009213068898196897  0.008260063736602654  0.9997732229384955  1.0000
  Al  Al11      1.0  0.004903016338486385  0.004883445294544428  0.9999071225068547  1.0000
  Al  Al12      1.0  0.0032325588026599506  0.0016104683723168027  0.9996488661679487  1.0000
  Ni  Ni1       1.0  0.0042264708707164455  9.013760361597504e-05  0.999451641064901  1.0000
  Ni  Ni2       1.0  5.9804154524968266e-05  0.006756804524957454  0.9995793856108399  1.0000
  Ni  Ni3       1.0  0.008393137397646274  0.003423471128337475  0.9993238966765559  1.0000
  Ni  Ni4       1.0  0.004459714407921469  0.006623522416756013  0.9994567490950754  1.0000
  Ni  Ni5       1.0  0.0002930476462843905  0.003290189020136034  0.999584493484733  1.0000
  Ni  Ni6       1.0  0.008626381223940082  0.009956855813375992  0.9993290044099008  1.0000
  Ni  Ni7       1.0  0.005593092869620607  0.008356830169166723  0.9992625783769457  1.0000
  Ni  Ni8       1.0  0.0014264259085845683  0.005023496772546744  0.9993903227676962  1.0000
  Ni  Ni9       1.0  0.007259759516016838  0.001690163375926765  0.9995180673915061  1.0000
  Ni  Ni10      1.0  0.00017642585945511438  2.349660008164426e-05  0.999581939469743  1.0000
  Ni  Ni11      1.0  0.008509759602421403  0.006690163686606664  0.9993264506892829  1.0000
  Ni  Ni12      1.0  0.004343092494774565  0.0033568300742367546  0.9994541950807935  1.0000
  Ni  Ni13      1.0  0.0018637761449494927  0.00013179770823054432  0.9998424901627239  1.0000
  Ni  Ni14      1.0  0.0076526301432918  0.006719709345008343  0.9999519050649287  1.0000
  Ni  Ni15      1.0  0.005949138574556626  0.0034117108154079773  0.9997041054805175  1.0000
  Ni  Ni16      1.0  0.0020131704771539378  0.006574171777788259  0.9998458370522169  1.0000
  Ni  Ni17      1.0  0.007959399146214987  0.0034348827893802376  0.9999570673762012  1.0000
  Ni  Ni18      1.0  0.006144333239502565  0.009976503727993092  0.9997112345651253  1.0000
  Ni  Ni19      1.0  0.003093092509977392  0.008356830169166723  0.9996458119390077  1.0000
  Ni  Ni20      1.0  0.009013510897912563  0.005028514252916745  0.9997719179700013  1.0000
  Ni  Ni21      1.0  0.004975678783789295  0.001730455322587362  0.9998981092535859  1.0000
  Ni  Ni22      1.0  0.007861347850311864  0.00993152073060645  0.9999462984911849  1.0000
  Ni  Ni23      1.0  0.006031277596072572  0.006673327856576019  0.999708313829016  1.0000
  Ni  Ni24      1.0  0.001946237638191196  0.0033591435607351863  0.9998350168583222  1.0000
