data_image0
_chemical_formula_structural       CONi12Sn16
_chemical_formula_sum              "C1 O1 Ni12 Sn16"
_cell_length_a       6.5348343354453595
_cell_length_b       11.017543236012608
_cell_length_c       100.13465881347656
_cell_angle_alpha    93.33313509332139
_cell_angle_beta     90.05747934829192
_cell_angle_gamma    103.55289577976309

_space_group_name_H-M_alt    "P 1"
_space_group_IT_number       1

loop_
  _space_group_symop_operation_xyz
  'x, y, z'

loop_
  _atom_site_type_symbol
  _atom_site_label
  _atom_site_symmetry_multiplicity
  _atom_site_fract_x
  _atom_site_fract_y
  _atom_site_fract_z
  _atom_site_occupancy
  C   C1        1.0  0.0072605221643679795  0.005276204284238536  0.00016349073045385845  1.0000
  O   O1        1.0  0.0072605221643679795  0.005276204284238536  0.0002833290047960414  1.0000
  Ni  Ni1       1.0  0.0068135716619780315  0.0009181029872331662  0.9998674278435259  1.0000
  Ni  Ni2       1.0  0.000551146277105391  0.005321616124704046  0.9996859683659959  1.0000
  Ni  Ni3       1.0  0.0030668966518376606  0.0035795986907051053  0.999668056925099  1.0000
  Ni  Ni4       1.0  0.009448854094142225  0.009260850250031956  0.999852840719738  1.0000
  Ni  Ni5       1.0  0.004469215273843119  0.002708849385316366  0.9998791782286833  1.0000
  Ni  Ni6       1.0  0.008035396318521895  0.007063633558702986  0.999703879732933  1.0000
  Ni  Ni7       1.0  0.004301146614521864  0.009696616459203907  0.9994978798325708  1.0000
  Ni  Ni8       1.0  0.008051146696835675  0.004071616278016482  0.9993097914922608  1.0000
  Ni  Ni9       1.0  0.0005668966554191728  0.0023295988440175416  0.9992918801253238  1.0000
  Ni  Ni10      1.0  0.006816896846737431  0.007954599025204966  0.9994799683916645  1.0000
  Ni  Ni11      1.0  0.0017853961960538542  0.0014386335517342392  0.9995157914677112  1.0000
  Ni  Ni12      1.0  0.005535396322103405  0.005813633712015423  0.9993277029331578  1.0000
  Sn  Sn1       1.0  0.007899178560791522  0.0029163450496964213  1.9173413828046023e-05  1.0000
  Sn  Sn2       1.0  0.0015539853407884217  0.007371795736634256  0.9998522739675143  1.0000
  Sn  Sn3       1.0  0.0021192479391618784  0.004493359974277407  0.9999104391738467  1.0000
  Sn  Sn4       1.0  0.0056343084281420056  0.008864516696315248  0.9997177740119128  1.0000
  Sn  Sn5       1.0  0.000600517167222529  0.0016290343568263438  0.9997859891558298  1.0000
  Sn  Sn6       1.0  0.006539668016657639  0.007441501326358848  0.9999612380067265  1.0000
  Sn  Sn7       1.0  0.00688866573693084  0.004805570297398028  0.9998035301674677  1.0000
  Sn  Sn8       1.0  0.0031563264064618317  0.000322084166665403  0.999969374421893  1.0000
  Sn  Sn9       1.0  0.005467984753584472  0.0017787157273115213  0.9996541626472475  1.0000
  Sn  Sn10      1.0  0.009217985022150725  0.006153715887592705  0.9994660741127034  1.0000
  Sn  Sn11      1.0  0.009384308652972519  0.0032395165151278232  0.9995296856716122  1.0000
  Sn  Sn12      1.0  0.003134308258393902  0.007614516501190329  0.9993415972098972  1.0000
  Sn  Sn13      1.0  0.008012328614519702  0.00030338386048736675  0.9993979221329388  1.0000
  Sn  Sn14      1.0  0.004262328609662387  0.005928384237670803  0.9995860104745076  1.0000
  Sn  Sn15      1.0  0.004339964501979118  0.0034648485134870792  0.9994097493859871  1.0000
  Sn  Sn16      1.0  0.0005899644244815715  0.00908984834623715  0.9995978377240683  1.0000
