data_image0
_chemical_formula_structural       HMo48
_chemical_formula_sum              "H1 Mo48"
_cell_length_a       8.943727493286133
_cell_length_b       8.943727584786346
_cell_length_c       102.8613510131836
_cell_angle_alpha    90.0
_cell_angle_beta     90.0
_cell_angle_gamma    60.00000033842743

_space_group_name_H-M_alt    "P 1"
_space_group_IT_number       1

loop_
  _space_group_symop_operation_xyz
  'x, y, z'

loop_
  _atom_site_type_symbol
  _atom_site_label
  _atom_site_symmetry_multiplicity
  _atom_site_fract_x
  _atom_site_fract_y
  _atom_site_fract_z
  _atom_site_occupancy
  H   H1        1.0  0.0008333339060912381  0.0008333338872414417  0.00011977791825885352  1.0000
  Mo  Mo1       1.0  0.004166666301382145  0.004166666730794957  0.9991415702421511  1.0000
  Mo  Mo2       1.0  0.0008333329131050938  0.0008333331657981747  0.9994965391700773  1.0000
  Mo  Mo3       1.0  0.0024999996142190993  0.0025000000384769743  0.9993190548509806  1.0000
  Mo  Mo4       1.0  0.004166666301382145  0.004166666730794957  0.9994077971553954  1.0000
  Mo  Mo5       1.0  0.0008333329131050938  0.0008333331657981747  0.9992303125465659  1.0000
  Mo  Mo6       1.0  0.0024999996142190993  0.0025000000384769743  0.9990528279377363  1.0000
  Mo  Mo7       1.0  0.004166666301382145  0.004166666730794957  0.9996740243583727  1.0000
  Mo  Mo8       1.0  0.0008333339060912381  0.0008333338872414417  0.0  1.0000
  Mo  Mo9       1.0  0.002499999493978555  0.0025000002789580633  0.9998616444051631  1.0000
  Mo  Mo10      1.0  0.0041666675509585555  0.004166666730794957  0.9999302525876073  1.0000
  Mo  Mo11      1.0  0.0008333335958553534  0.000833333466399536  0.9997634846210308  1.0000
  Mo  Mo12      1.0  0.0024999996142190993  0.0025000000384769743  0.9995852820539579  1.0000
  Mo  Mo13      1.0  0.004166666296227208  0.009166666807748906  0.9991415702421511  1.0000
  Mo  Mo14      1.0  0.0008333329219011162  0.00583333342311294  0.9994965391700773  1.0000
  Mo  Mo15      1.0  0.002499999609064162  0.007500000115430923  0.9993190548509806  1.0000
  Mo  Mo16      1.0  0.004166666296227208  0.009166666807748906  0.9994077971553954  1.0000
  Mo  Mo17      1.0  0.0008333329219011162  0.00583333342311294  0.9992303125465659  1.0000
  Mo  Mo18      1.0  0.002499999609064162  0.007500000115430923  0.9990528279377363  1.0000
  Mo  Mo19      1.0  0.004166666296227208  0.009166666807748906  0.9996740243583727  1.0000
  Mo  Mo20      1.0  0.0008333339309964374  0.005833333904075118  0.0  1.0000
  Mo  Mo21      1.0  0.002499999368583073  0.007500000596393101  0.9998616444051631  1.0000
  Mo  Mo22      1.0  0.004166667129278149  0.009166666807748906  0.9999302525876073  1.0000
  Mo  Mo23      1.0  0.0008333337549520564  0.00583333342311294  0.9997634846210308  1.0000
  Mo  Mo24      1.0  0.002499999609064162  0.007500000115430923  0.9995852820539579  1.0000
  Mo  Mo25      1.0  0.00916666636802622  0.004166666730794957  0.9991415702421511  1.0000
  Mo  Mo26      1.0  0.005833333083880537  0.0008333331657981747  0.9994965391700773  1.0000
  Mo  Mo27      1.0  0.007499999680863175  0.0025000000384769743  0.9993190548509806  1.0000
  Mo  Mo28      1.0  0.00916666636802622  0.004166666730794957  0.9994077971553954  1.0000
  Mo  Mo29      1.0  0.005833333083880537  0.0008333331657981747  0.9992303125465659  1.0000
  Mo  Mo30      1.0  0.007499999680863175  0.0025000000384769743  0.9990528279377363  1.0000
  Mo  Mo31      1.0  0.00916666636802622  0.004166666730794957  0.9996740243583727  1.0000
  Mo  Mo32      1.0  0.005833333972735314  0.0008333338872414417  0.0  1.0000
  Mo  Mo33      1.0  0.007499999560622629  0.0025000002789580633  0.9998616444051631  1.0000
  Mo  Mo34      1.0  0.0091666680341281  0.004166666730794957  0.9999302525876073  1.0000
  Mo  Mo35      1.0  0.005833333766630796  0.000833333466399536  0.9997634846210308  1.0000
  Mo  Mo36      1.0  0.007499999680863175  0.0025000000384769743  0.9995852820539579  1.0000
  Mo  Mo37      1.0  0.009166666362871284  0.009166666807748906  0.9991415702421511  1.0000
  Mo  Mo38      1.0  0.005833332988545192  0.00583333342311294  0.9994965391700773  1.0000
  Mo  Mo39      1.0  0.007499999675708237  0.007500000115430923  0.9993190548509806  1.0000
  Mo  Mo40      1.0  0.009166666362871284  0.009166666807748906  0.9994077971553954  1.0000
  Mo  Mo41      1.0  0.005833332988545192  0.00583333342311294  0.9992303125465659  1.0000
  Mo  Mo42      1.0  0.007499999675708237  0.007500000115430923  0.9990528279377363  1.0000
  Mo  Mo43      1.0  0.009166666362871284  0.009166666807748906  0.9996740243583727  1.0000
  Mo  Mo44      1.0  0.005833334414165983  0.005833333904075118  0.0  1.0000
  Mo  Mo45      1.0  0.007499999435227148  0.007500000596393101  0.9998616444051631  1.0000
  Mo  Mo46      1.0  0.009166668028973165  0.009166666807748906  0.9999302525876073  1.0000
  Mo  Mo47      1.0  0.005833333821596132  0.00583333342311294  0.9997634846210308  1.0000
  Mo  Mo48      1.0  0.007499999675708237  0.007500000115430923  0.9995852820539579  1.0000
