data_image0
_chemical_formula_structural       COCa6Zn6Ca6Zn6
_chemical_formula_sum              "C1 O1 Ca12 Zn12"
_cell_length_a       7.6059131731205865
_cell_length_b       8.763193514087263
_cell_length_c       101.71369934082031
_cell_angle_alpha    93.96117566003184
_cell_angle_beta     94.79206212335134
_cell_angle_gamma    73.25941933927696

_space_group_name_H-M_alt    "P 1"
_space_group_IT_number       1

loop_
  _space_group_symop_operation_xyz
  'x, y, z'

loop_
  _atom_site_type_symbol
  _atom_site_label
  _atom_site_symmetry_multiplicity
  _atom_site_fract_x
  _atom_site_fract_y
  _atom_site_fract_z
  _atom_site_occupancy
  C   C1        1.0  0.009407027905207931  0.002039977022503761  0.00015122149546029624  1.0000
  O   O1        1.0  0.009407027905207931  0.002039977022503761  0.0002691999427733334  1.0000
  Ca  Ca1       1.0  0.005038143865014794  0.002473538491901309  0.9993329970416875  1.0000
  Ca  Ca2       1.0  0.0017048104171999113  0.0035846495516506423  0.9996794343989496  1.0000
  Ca  Ca3       1.0  0.008356386124235777  0.004695140328256719  1.4571047489663672e-05  1.0000
  Ca  Ca4       1.0  0.0037820850195406266  0.003356350271245454  4.360221482795012e-05  1.0000
  Ca  Ca5       1.0  0.000592972374161224  0.0011079492349511785  0.9993618288873948  1.0000
  Ca  Ca6       1.0  0.007259638693111541  0.002219060288196297  0.9997082664306823  1.0000
  Zn  Zn1       1.0  0.0011833129114651444  0.0032766282713209837  0.9991326784334523  1.0000
  Zn  Zn2       1.0  0.007849979550792934  0.0043877395652934335  0.999479115980174  1.0000
  Zn  Zn3       1.0  0.004608636086524529  0.0004740806142418403  0.9998299479562309  1.0000
  Zn  Zn4       1.0  0.0077811363269972966  0.004193748425230933  0.9992157102881024  1.0000
  Zn  Zn5       1.0  0.004447803007333402  0.00030485953439750876  0.9995621477871001  1.0000
  Zn  Zn6       1.0  0.0010319970295338942  0.001437220218582947  0.9999112984291835  1.0000
  Ca  Ca7       1.0  0.005038143865014794  0.007473538304406552  0.9993329968999306  1.0000
  Ca  Ca8       1.0  0.0017048104171999113  0.008584649364155886  0.9996794348431968  1.0000
  Ca  Ca9       1.0  0.008356386124235777  0.009695140566886409  1.4571494273022917e-05  1.0000
  Ca  Ca10      1.0  0.0037820850195406266  0.008356350083750698  4.360207307106051e-05  1.0000
  Ca  Ca11      1.0  0.000592972374161224  0.006107949153987533  0.999361829039274  1.0000
  Ca  Ca12      1.0  0.007259638693111541  0.0072190605268259884  0.9997082668774657  1.0000
  Zn  Zn7       1.0  0.0011833129114651444  0.008276628509950675  0.9991326782942316  1.0000
  Zn  Zn8       1.0  0.007849979550792934  0.009387739377798677  0.9994791158384171  1.0000
  Zn  Zn9       1.0  0.004608636086524529  0.005474080746340419  0.9998299478163762  1.0000
  Zn  Zn10      1.0  0.0077811363269972966  0.009193747811611728  0.9992157101438094  1.0000
  Zn  Zn11      1.0  0.004447803007333402  0.005304859453433864  0.9995621476459772  1.0000
  Zn  Zn12      1.0  0.0010319970295338942  0.006437220137619302  0.9999112982880607  1.0000
