data_image0
_chemical_formula_structural       COCa4Cu4Ga2
_chemical_formula_sum              "C1 O1 Ca4 Cu4 Ga2"
_cell_length_a       5.592370934092008
_cell_length_b       5.783783628053554
_cell_length_c       101.29039001464844
_cell_angle_alpha    86.6224393210493
_cell_angle_beta     84.8730706057443
_cell_angle_gamma    61.088857021666655

_space_group_name_H-M_alt    "P 1"
_space_group_IT_number       1

loop_
  _space_group_symop_operation_xyz
  'x, y, z'

loop_
  _atom_site_type_symbol
  _atom_site_label
  _atom_site_symmetry_multiplicity
  _atom_site_fract_x
  _atom_site_fract_y
  _atom_site_fract_z
  _atom_site_occupancy
  C   C1        1.0  0.008659054096484894  0.004715161954167738  0.0001117025751283454  1.0000
  O   O1        1.0  0.008659054096484894  0.004715161954167738  0.00023017348547151696  1.0000
  Ca  Ca1       1.0  0.001093850773186827  0.002116683223442428  0.9994070430881791  1.0000
  Ca  Ca2       1.0  0.007663265673173973  0.008487768978111368  0.999558438336274  1.0000
  Ca  Ca3       1.0  0.0023575339386483134  0.008364490238326671  0.9997873986927421  1.0000
  Ca  Ca4       1.0  0.008906148760277666  0.0047768263451154515  0.9999399888604356  1.0000
  Cu  Cu1       1.0  0.0011522059546894112  0.007177226442976626  0.9992896670468183  1.0000
  Cu  Cu2       1.0  0.006354910217354924  0.007177226442976626  0.9992896670826196  1.0000
  Cu  Cu3       1.0  0.0023705133356053953  0.0034139875965271105  0.9996780592354185  1.0000
  Cu  Cu4       1.0  0.0076414675640770445  0.0034260746060520196  0.9996766517891962  1.0000
  Ga  Ga1       1.0  0.004378558177320476  0.005302226192766072  0.9994827407121434  1.0000
  Ga  Ga2       1.0  0.00564505095403796  0.0015122312831378857  0.9998662084057691  1.0000
