data_image0
_chemical_formula_structural       COCa6Si12
_chemical_formula_sum              "C1 O1 Ca6 Si12"
_cell_length_a       5.9643324990303705
_cell_length_b       8.35476773686324
_cell_length_c       101.04490661621094
_cell_angle_alpha    86.81170913688612
_cell_angle_beta     89.16796841344858
_cell_angle_gamma    81.67737032031236

_space_group_name_H-M_alt    "P 1"
_space_group_IT_number       1

loop_
  _space_group_symop_operation_xyz
  'x, y, z'

loop_
  _atom_site_type_symbol
  _atom_site_label
  _atom_site_symmetry_multiplicity
  _atom_site_fract_x
  _atom_site_fract_y
  _atom_site_fract_z
  _atom_site_occupancy
  C   C1        1.0  0.0024994925933623227  0.0012792413680450406  3.817289056367231e-06  1.0000
  O   O1        1.0  0.0024994925933623227  0.0012792413680450406  0.0001225766082595963  1.0000
  Ca  Ca1       1.0  0.0003472222621616106  5.030299811934611e-05  0.999558036744803  1.0000
  Ca  Ca2       1.0  0.008680555727762785  0.006716969300600832  0.9993020046958057  1.0000
  Ca  Ca3       1.0  0.004513888733016902  0.0033836361899060707  0.9994300208678131  1.0000
  Ca  Ca4       1.0  0.007871385835339188  0.009949696704167378  0.9999321821918198  1.0000
  Ca  Ca5       1.0  0.006115085345313458  0.006707423972706639  0.9996899871967709  1.0000
  Ca  Ca6       1.0  0.0020631816684881905  0.0033190137649702655  0.9998235014395391  1.0000
  Si  Si1       1.0  0.005486110963883612  0.009494746817630734  0.9994513568001379  1.0000
  Si  Si2       1.0  0.0013194445937982629  0.006161413706935972  0.9995793729716098  1.0000
  Si  Si3       1.0  0.009652777723984486  0.0028280805962412102  0.9993233405367776  1.0000
  Si  Si4       1.0  0.0035416667367952027  0.007272524894265693  0.9994086847318998  1.0000
  Si  Si5       1.0  0.009374999717062897  0.003939191783570931  0.9995367008427283  1.0000
  Si  Si6       1.0  0.00770833351964934  0.0006058585600525691  0.999280668469039  1.0000
  Si  Si7       1.0  0.002974250136807768  0.009466462392287218  0.9998407663394481  1.0000
  Si  Si8       1.0  0.00873584679488776  0.0061318918323424974  0.9999643137254028  1.0000
  Si  Si9       1.0  0.007133710355566436  0.0028783211711778584  0.9997110366435431  1.0000
  Si  Si10      1.0  0.0009800755173167766  0.007196936241011371  0.9997927779765083  1.0000
  Si  Si11      1.0  0.006901625990667481  0.003840633599144051  0.9999281943917295  1.0000
  Si  Si12      1.0  0.005208333369730812  0.0006058585600525691  0.9996647170146996  1.0000
