data_image0
_chemical_formula_structural       CONi6As12Ni6As12
_chemical_formula_sum              "C1 O1 Ni12 As24"
_cell_length_a       5.884169578552246
_cell_length_b       8.711367049633227
_cell_length_c       106.12845611572266
_cell_angle_alpha    93.68700775840314
_cell_angle_beta     90.0
_cell_angle_gamma    90.0

_space_group_name_H-M_alt    "P 1"
_space_group_IT_number       1

loop_
  _space_group_symop_operation_xyz
  'x, y, z'

loop_
  _atom_site_type_symbol
  _atom_site_label
  _atom_site_symmetry_multiplicity
  _atom_site_fract_x
  _atom_site_fract_y
  _atom_site_fract_z
  _atom_site_occupancy
  C   C1        1.0  0.009863321467920821  0.000461788167731304  0.00015975552588283517  1.0000
  O   O1        1.0  0.009863321467920821  0.000461788167731304  0.000272826277666977  1.0000
  Ni  Ni1       1.0  0.005136679063886396  0.0036525929615460226  0.99897961257417  1.0000
  Ni  Ni2       1.0  0.005136679063886396  0.000319259682135104  0.999168735936252  1.0000
  Ni  Ni3       1.0  0.005136679063886396  0.006985925946347721  0.999357859211681  1.0000
  Ni  Ni4       1.0  0.00013667895586305504  0.0036525929615460226  0.999263297574744  1.0000
  Ni  Ni5       1.0  0.00013667895586305504  0.000319259682135104  0.999452420936826  1.0000
  Ni  Ni6       1.0  0.00013667895586305504  0.006985925946347721  0.9990741744919206  1.0000
  As  As1       1.0  0.008823206580949204  0.002962696374035941  0.9994686976279289  1.0000
  As  As2       1.0  0.008823206580949204  0.00962936255790059  0.999090450620972  1.0000
  As  As3       1.0  0.008823206580949204  0.00629602957309889  0.9992795739846091  1.0000
  As  As4       1.0  0.0014501512302716743  0.004342489334794854  0.9990578980820555  1.0000
  As  As5       1.0  0.0014501512302716743  0.0010091561357319038  0.9992470214445616  1.0000
  As  As6       1.0  0.0014501512302716743  0.007675822748119054  0.9994361447218283  1.0000
  As  As7       1.0  0.0038232067202320454  0.0010091561357319038  0.9989633364439875  1.0000
  As  As8       1.0  0.0038232067202320454  0.007675822748119054  0.9991524597212543  1.0000
  As  As9       1.0  0.0038232067202320454  0.004342489334794854  0.9993415830826294  1.0000
  As  As10      1.0  0.006450151090988832  0.002962696374035941  0.9991850123465412  1.0000
  As  As11      1.0  0.006450151090988832  0.00962936255790059  0.9993741356215461  1.0000
  As  As12      1.0  0.006450151090988832  0.00629602957309889  0.9989958889840351  1.0000
  Ni  Ni7       1.0  0.005136679063886396  0.0036525929615460226  0.9995469828561317  1.0000
  Ni  Ni8       1.0  0.005136679063886396  0.000319259682135104  0.9997361062182137  1.0000
  Ni  Ni9       1.0  0.005105274898038882  0.006989722227189275  0.999916706056686  1.0000
  Ni  Ni10      1.0  0.00023915046104039077  0.0036188408152310805  0.9998359753930651  1.0000
  Ni  Ni11      1.0  0.009863321467920821  0.0003336655908974937  0.9999962140424659  1.0000
  Ni  Ni12      1.0  0.00013667895586305504  0.006985925946347721  0.9996415442122549  1.0000
  As  As13      1.0  0.008084883426439779  0.0028630138982394405  1.5112265208196624e-05  1.0000
  As  As14      1.0  0.008823206580949204  0.00962936255790059  0.9996578209029338  1.0000
  As  As15      1.0  0.008964151954279085  0.00637151252618581  0.9998591076692538  1.0000
  As  As16      1.0  0.0014501512302716743  0.004342489334794854  0.9996252680832035  1.0000
  As  As17      1.0  0.001498684336800541  0.0010067669085243095  0.9998122165689607  1.0000
  As  As18      1.0  0.001606431328027768  0.007912813689441337  4.995372532016775e-06  1.0000
  As  As19      1.0  0.0038232067202320454  0.0010091561357319038  0.9995307061643219  1.0000
  As  As20      1.0  0.0038232067202320454  0.007675822748119054  0.9997198294415887  1.0000
  As  As21      1.0  0.004047914579281131  0.004358168116082892  0.9999175767914813  1.0000
  As  As22      1.0  0.006450151090988832  0.002962696374035941  0.9997523823476893  1.0000
  As  As23      1.0  0.006197647124821252  0.009680739834705776  0.9999406221090374  1.0000
  As  As24      1.0  0.006450151090988832  0.00629602957309889  0.9995632589851832  1.0000
