data_image0
_chemical_formula_structural       COAl4V12Al4V12
_chemical_formula_sum              "C1 O1 Al8 V24"
_cell_length_a       4.820557117462158
_cell_length_b       6.817296981811523
_cell_length_c       104.08648681640625
_cell_angle_alpha    90.0
_cell_angle_beta     90.0
_cell_angle_gamma    90.0

_space_group_name_H-M_alt    "P 1"
_space_group_IT_number       1

loop_
  _space_group_symop_operation_xyz
  'x, y, z'

loop_
  _atom_site_type_symbol
  _atom_site_label
  _atom_site_symmetry_multiplicity
  _atom_site_fract_x
  _atom_site_fract_y
  _atom_site_fract_z
  _atom_site_occupancy
  C   C1        1.0  0.002500129929599965  0.0049426656405357015  0.00012119409350292873  1.0000
  O   O1        1.0  0.002500129929599965  0.0049426656405357015  0.00023648306794839545  1.0000
  Al  Al1       1.0  2.024999955928339e-08  0.005625000131147238  0.9990154496697311  1.0000
  Al  Al2       1.0  2.024999955928339e-08  0.0006249999918032976  0.9993429318134573  1.0000
  Al  Al3       1.0  0.005000019907134332  0.005625000131147238  0.9993429318134573  1.0000
  Al  Al4       1.0  0.005000019907134332  0.0006249999918032976  0.9990154496697311  1.0000
  V   V1        1.0  0.005000019907134332  0.006874999978142126  0.9989335791337995  1.0000
  V   V2        1.0  0.005000019907134332  0.001875000043715746  0.9992610612775258  1.0000
  V   V3        1.0  0.005000019907134332  0.00937500021857873  0.9987698377756138  1.0000
  V   V4        1.0  0.005000019907134332  0.004375000010928936  0.9990973202056627  1.0000
  V   V5        1.0  0.007500019814399234  0.0031249998907106344  0.998851708597868  1.0000
  V   V6        1.0  0.007500019814399234  0.008124999825137015  0.9991791907415942  1.0000
  V   V7        1.0  0.0025000201930675497  0.0031249998907106344  0.998851708597868  1.0000
  V   V8        1.0  0.0025000201930675497  0.008124999825137015  0.9991791907415942  1.0000
  V   V9        1.0  2.024999955928339e-08  0.004375000010928936  0.9992610612775258  1.0000
  V   V10       1.0  2.024999955928339e-08  0.00937500021857873  0.9989335791337995  1.0000
  V   V11       1.0  2.024999955928339e-08  0.006874999978142126  0.9987698377756138  1.0000
  V   V12       1.0  2.024999955928339e-08  0.001875000043715746  0.9990973202056627  1.0000
  Al  Al5       1.0  2.024999955928339e-08  0.005625000131147238  0.999670414529829  1.0000
  Al  Al6       1.0  0.009999869027130185  0.0007205404816595657  0.9999999965641277  1.0000
  Al  Al7       1.0  0.005000190307876569  0.005529942427061851  0.0  1.0000
  Al  Al8       1.0  0.005000019907134332  0.0006249999918032976  0.999670414529829  1.0000
  V   V13       1.0  0.005000019907134332  0.006874999978142126  0.999588543421252  1.0000
  V   V14       1.0  0.004999992859397468  0.0018944501354331298  0.9999095878857266  1.0000
  V   V15       1.0  0.005000019907134332  0.00937500021857873  0.9994248023493889  1.0000
  V   V16       1.0  0.005000073229815575  0.004308445519741052  0.9997624111538418  1.0000
  V   V17       1.0  0.007500019814399234  0.0031249998907106344  0.9995066728853205  1.0000
  V   V18       1.0  0.007500100957609823  0.008125098732012543  0.9998346308973494  1.0000
  V   V19       1.0  0.0025000201930675497  0.0031249998907106344  0.9995066728853205  1.0000
  V   V20       1.0  0.0024999415614325262  0.00812512168277924  0.9998346320426401  1.0000
  V   V21       1.0  6.9449995758904e-08  0.004355388854009552  0.9999095781507553  1.0000
  V   V22       1.0  2.024999955928339e-08  0.00937500021857873  0.999588543421252  1.0000
  V   V23       1.0  2.024999955928339e-08  0.006874999978142126  0.9994248023493889  1.0000
  V   V24       1.0  0.009999979536455083  0.0019417750261979721  0.9997624185982316  1.0000
