data_image0
_chemical_formula_structural       COCo8Sn16
_chemical_formula_sum              "C1 O1 Co8 Sn16"
_cell_length_a       5.318878849962421
_cell_length_b       9.09987735748291
_cell_length_c       32.264347076416016
_cell_angle_alpha    90.0
_cell_angle_beta     87.64294429752891
_cell_angle_gamma    90.0

_space_group_name_H-M_alt    "P 1"
_space_group_IT_number       1

loop_
  _space_group_symop_operation_xyz
  'x, y, z'

loop_
  _atom_site_type_symbol
  _atom_site_label
  _atom_site_symmetry_multiplicity
  _atom_site_fract_x
  _atom_site_fract_y
  _atom_site_fract_z
  _atom_site_occupancy
  C   C1        1.0  0.001196949082009204  0.0097655584760624  0.0004160696425303102  1.0000
  O   O1        1.0  0.001196949082009204  0.0097655584760624  0.000787997036193398  1.0000
  Co  Co1       1.0  0.008755067968454185  0.005024744186516897  0.9984354895864413  1.0000
  Co  Co2       1.0  0.006255068108650828  2.4744199054100184e-05  0.9977045038542615  1.0000
  Co  Co3       1.0  0.0012347374223422754  3.8585697225157774e-05  0.9991462596194394  1.0000
  Co  Co4       1.0  0.003858794838251207  0.005074920019968742  0.999818142608379  1.0000
  Co  Co5       1.0  0.006255068108650828  0.005024744186516897  0.9977045038542615  1.0000
  Co  Co6       1.0  0.0038589262726041853  0.00997525584623335  0.9998175962770871  1.0000
  Co  Co7       1.0  0.008755067968454185  2.4744199054100184e-05  0.9984354895864413  1.0000
  Co  Co8       1.0  0.0012344070840017908  0.0050109542859749405  0.9991462530840184  1.0000
  Sn  Sn1       1.0  0.006386221367359171  0.004187153364844136  0.9991633084135184  1.0000
  Sn  Sn2       1.0  0.0037550682488474716  0.009180918274721221  0.9984354894783157  1.0000
  Sn  Sn3       1.0  0.008803050970564536  0.009555861924647604  0.9999399713828607  1.0000
  Sn  Sn4       1.0  0.0012550682137983107  0.004180918127345114  0.997704503747324  1.0000
  Sn  Sn5       1.0  0.008770807144600387  0.007524744055515912  0.9979466315251893  1.0000
  Sn  Sn6       1.0  0.006270807284797031  0.0025247441128288424  0.9972156457930094  1.0000
  Sn  Sn7       1.0  0.0012708072146987096  0.0025247441128288424  0.9986776177362633  1.0000
  Sn  Sn8       1.0  0.0036394649008170436  0.0075247825370552005  0.9994513688408726  1.0000
  Sn  Sn9       1.0  0.0037550682488474716  0.005868569836310601  0.9984354894783157  1.0000
  Sn  Sn10      1.0  0.0012550682137983107  0.0008685702006570905  0.997704503747324  1.0000
  Sn  Sn11      1.0  0.006386397314146358  0.0008633554403608585  0.99916307121729  1.0000
  Sn  Sn12      1.0  0.008802737631067039  0.00549456980285295  0.9999403185062625  1.0000
  Sn  Sn13      1.0  0.008739328792307982  0.007524744055515912  0.9989243476476934  1.0000
  Sn  Sn14      1.0  0.006239328932504625  0.0025247441128288424  0.9981933616845905  1.0000
  Sn  Sn15      1.0  0.0019624857546190868  0.002524758850439634  0.9997113706050899  1.0000
  Sn  Sn16      1.0  0.0037393290727012686  0.007524744055515912  0.9974623757214875  1.0000
