data_image0
_chemical_formula_structural       CORe12Pt4Re12Pt4
_chemical_formula_sum              "C1 O1 Re24 Pt8"
_cell_length_a       7.146597400185999
_cell_length_b       5.599315667890128
_cell_length_c       112.87958526611328
_cell_angle_alpha    66.93675663764478
_cell_angle_beta     76.8368033010856
_cell_angle_gamma    66.93675706334956

_space_group_name_H-M_alt    "P 1"
_space_group_IT_number       1

loop_
  _space_group_symop_operation_xyz
  'x, y, z'

loop_
  _atom_site_type_symbol
  _atom_site_label
  _atom_site_symmetry_multiplicity
  _atom_site_fract_x
  _atom_site_fract_y
  _atom_site_fract_z
  _atom_site_occupancy
  C   C1        1.0  0.007647743722425526  0.008998719480313496  0.9998517848126984  1.0000
  O   O1        1.0  0.007647743722425526  0.008998719480313496  0.9999580930019996  1.0000
  Re  Re1       1.0  0.00045362287722184637  0.00752012232185293  0.9998473262121539  1.0000
  Re  Re2       1.0  0.005453623032204278  0.0075201225693267235  0.9995307675511026  1.0000
  Re  Re3       1.0  0.007842754276837165  0.00274185995099509  0.9996820279188826  1.0000
  Re  Re4       1.0  0.00284275429958688  0.002741859622450748  0.9993654691864452  1.0000
  Re  Re5       1.0  0.00045362287722184637  0.0027418597813056874  0.9998473263092017  1.0000
  Re  Re6       1.0  0.005453623032204278  0.0027418598480025997  0.9995307676516633  1.0000
  Re  Re7       1.0  0.009546377468289447  0.0011491054697463372  0.999473328448396  1.0000
  Re  Re8       1.0  0.004546376922296294  0.0011491057621815118  0.9997898871045929  1.0000
  Re  Re9       1.0  0.0021572458198491225  0.005927368315656707  0.9996386272640607  1.0000
  Re  Re10      1.0  0.007157245654913691  0.005927368709057487  0.9993220686047862  1.0000
  Re  Re11      1.0  0.009546377468289447  0.005927367829516698  0.999473328354861  1.0000
  Re  Re12      1.0  0.004546376922296294  0.005927368483505635  0.9997898870040323  1.0000
  Pt  Pt1       1.0  0.0020833332764590468  0.0010012807636237849  0.9996339474964065  1.0000
  Pt  Pt2       1.0  0.0070833329693378985  0.001001281041104121  0.9993173888414346  1.0000
  Pt  Pt3       1.0  0.00791666639367009  0.0076679475168204446  0.9996867071643813  1.0000
  Pt  Pt4       1.0  0.002916666700791239  0.007667947058563228  0.999370148958402  1.0000
  Re  Re13      1.0  0.00045362287722184637  0.00752012232185293  0.9992142093476898  1.0000
  Re  Re14      1.0  0.005453623032204278  0.0075201225693267235  0.9988976506866385  1.0000
  Re  Re15      1.0  0.007842754276837165  0.00274185995099509  0.9990489110544184  1.0000
  Re  Re16      1.0  0.0028427540152154464  0.002741859752163625  0.9987323523235604  1.0000
  Re  Re17      1.0  0.00045362287722184637  0.0027418597813056874  0.9992142094447375  1.0000
  Re  Re18      1.0  0.005453623032204278  0.0027418598480025997  0.9988976507871992  1.0000
  Re  Re19      1.0  0.009546377468289447  0.0011491054697463372  0.9988402115839318  1.0000
  Re  Re20      1.0  0.004546376922296294  0.0011491057621815118  0.9991567702401288  1.0000
  Re  Re21      1.0  0.0021572458198491225  0.005927368315656707  0.9990055098715592  1.0000
  Re  Re22      1.0  0.007157245654913691  0.005927368709057487  0.9986889517403221  1.0000
  Re  Re23      1.0  0.009546377468289447  0.005927367829516698  0.9988402114903969  1.0000
  Re  Re24      1.0  0.004546376922296294  0.005927368483505635  0.9991567701395682  1.0000
  Pt  Pt5       1.0  0.0020833332764590468  0.0010012807636237849  0.9990008306319424  1.0000
  Pt  Pt6       1.0  0.0070833329693378985  0.001001281041104121  0.9986842719769705  1.0000
  Pt  Pt7       1.0  0.00791666639367009  0.0076679475168204446  0.9990535902999171  1.0000
  Pt  Pt8       1.0  0.002916666700791239  0.007667947058563228  0.9987370320939378  1.0000
