data_image0
_chemical_formula_structural       HSi3Os3Si3Os3Si3Os3Si3Os3Si3Os3Si3Os3Si3Os3Si3Os3
_chemical_formula_sum              "H1 Si24 Os24"
_cell_length_a       8.40305354893812
_cell_length_b       8.403053283691406
_cell_length_c       100.87479400634766
_cell_angle_alpha    90.0
_cell_angle_beta     90.0
_cell_angle_gamma    60.00000104417883

_space_group_name_H-M_alt    "P 1"
_space_group_IT_number       1

loop_
  _space_group_symop_operation_xyz
  'x, y, z'

loop_
  _atom_site_type_symbol
  _atom_site_label
  _atom_site_symmetry_multiplicity
  _atom_site_fract_x
  _atom_site_fract_y
  _atom_site_fract_z
  _atom_site_occupancy
  H   H1        1.0  0.0041666668202392215  0.004166667033206187  0.0001221367400549741  1.0000
  Si  Si1       1.0  0.0008333333768455572  0.0008333334002423809  0.9996599216441618  1.0000
  Si  Si2       1.0  0.002500000194525236  0.0025000001687328606  0.999829960822081  1.0000
  Si  Si3       1.0  0.0041666668202392215  0.004166667033206187  0.0  1.0000
  Os  Os1       1.0  0.0008333333768455572  0.0008333334002423809  0.9999149804110404  1.0000
  Os  Os2       1.0  0.002500000194525236  0.0025000001687328606  0.9995749020552024  1.0000
  Os  Os3       1.0  0.0041666668202392215  0.004166667033206187  0.9997449412331214  1.0000
  Si  Si4       1.0  0.0008333333768455572  0.0008333334002423809  0.9991498044058434  1.0000
  Si  Si5       1.0  0.002500000194525236  0.0025000001687328606  0.9993198435837626  1.0000
  Si  Si6       1.0  0.0041666668202392215  0.004166667033206187  0.9994898827616816  1.0000
  Os  Os4       1.0  0.0008333333768455572  0.0008333334002423809  0.999404863172722  1.0000
  Os  Os5       1.0  0.002500000194525236  0.0025000001687328606  0.999064784816884  1.0000
  Os  Os6       1.0  0.0041666668202392215  0.004166667033206187  0.999234823994803  1.0000
  Si  Si7       1.0  0.0008333333768455572  0.005833333754903019  0.9996599216441618  1.0000
  Si  Si8       1.0  0.002500000194525236  0.0075000000800677005  0.999829960822081  1.0000
  Si  Si9       1.0  0.0041666668202392215  0.009166666944541027  0.0  1.0000
  Os  Os7       1.0  0.0008333333768455572  0.005833333754903019  0.9999149804110404  1.0000
  Os  Os8       1.0  0.002500000194525236  0.0075000000800677005  0.9995749020552024  1.0000
  Os  Os9       1.0  0.0041666668202392215  0.009166666944541027  0.9997449412331214  1.0000
  Si  Si10      1.0  0.0008333333768455572  0.005833333754903019  0.9991498044058434  1.0000
  Si  Si11      1.0  0.002500000194525236  0.0075000000800677005  0.9993198435837626  1.0000
  Si  Si12      1.0  0.0041666668202392215  0.009166666944541027  0.9994898827616816  1.0000
  Os  Os10      1.0  0.0008333333768455572  0.005833333754903019  0.999404863172722  1.0000
  Os  Os11      1.0  0.002500000194525236  0.0075000000800677005  0.999064784816884  1.0000
  Os  Os12      1.0  0.0041666668202392215  0.009166666944541027  0.999234823994803  1.0000
  Si  Si13      1.0  0.005833333189998949  0.0008333336709960041  0.9996599216441618  1.0000
  Si  Si14      1.0  0.0075000003276214505  0.002500000279515073  0.999829960822081  1.0000
  Si  Si15      1.0  0.009166666953335435  0.004166666700662602  0.0  1.0000
  Os  Os13      1.0  0.005833333189998949  0.0008333336709960041  0.9999149804110404  1.0000
  Os  Os14      1.0  0.0075000003276214505  0.002500000279515073  0.9995749020552024  1.0000
  Os  Os15      1.0  0.009166666953335435  0.004166666700662602  0.9997449412331214  1.0000
  Si  Si16      1.0  0.005833333189998949  0.0008333336709960041  0.9991498044058434  1.0000
  Si  Si17      1.0  0.0075000003276214505  0.002500000279515073  0.9993198435837626  1.0000
  Si  Si18      1.0  0.009166666953335435  0.004166666700662602  0.9994898827616816  1.0000
  Os  Os16      1.0  0.005833333189998949  0.0008333336709960041  0.999404863172722  1.0000
  Os  Os17      1.0  0.0075000003276214505  0.002500000279515073  0.999064784816884  1.0000
  Os  Os18      1.0  0.009166666953335435  0.004166666700662602  0.999234823994803  1.0000
  Si  Si19      1.0  0.005833333189998949  0.005833333582330844  0.9996599216441618  1.0000
  Si  Si20      1.0  0.0075000003276214505  0.007500000190849913  0.999829960822081  1.0000
  Si  Si21      1.0  0.009166666953335435  0.009166667055323239  0.0  1.0000
  Os  Os19      1.0  0.005833333189998949  0.005833333582330844  0.9999149804110404  1.0000
  Os  Os20      1.0  0.0075000003276214505  0.007500000190849913  0.9995749020552024  1.0000
  Os  Os21      1.0  0.009166666953335435  0.009166667055323239  0.9997449412331214  1.0000
  Si  Si22      1.0  0.005833333189998949  0.005833333582330844  0.9991498044058434  1.0000
  Si  Si23      1.0  0.0075000003276214505  0.007500000190849913  0.9993198435837626  1.0000
  Si  Si24      1.0  0.009166666953335435  0.009166667055323239  0.9994898827616816  1.0000
  Os  Os22      1.0  0.005833333189998949  0.005833333582330844  0.999404863172722  1.0000
  Os  Os23      1.0  0.0075000003276214505  0.007500000190849913  0.999064784816884  1.0000
  Os  Os24      1.0  0.009166666953335435  0.009166667055323239  0.999234823994803  1.0000
