data_image0
_chemical_formula_structural       COZnCuZnCuZnCuZnCuZnCuZnCuZnCuZnCuZnCuZnCuZnCuZnCu
_chemical_formula_sum              "C1 O1 Zn12 Cu12"
_cell_length_a       6.010125637054443
_cell_length_b       6.010125637054443
_cell_length_c       100.05062866210938
_cell_angle_alpha    90.0
_cell_angle_beta     90.0
_cell_angle_gamma    90.0

_space_group_name_H-M_alt    "P 1"
_space_group_IT_number       1

loop_
  _space_group_symop_operation_xyz
  'x, y, z'

loop_
  _atom_site_type_symbol
  _atom_site_label
  _atom_site_symmetry_multiplicity
  _atom_site_fract_x
  _atom_site_fract_y
  _atom_site_fract_z
  _atom_site_occupancy
  C   C1        1.0  0.0037499999628098596  0.0012499999876032864  0.00019989860327672236  1.0000
  O   O1        1.0  0.0037499999628098596  0.0012499999876032864  0.00031983812268965387  1.0000
  Zn  Zn1       1.0  0.0037499999628098596  0.0012499999876032864  0.0  1.0000
  Cu  Cu1       1.0  0.0012499999876032864  0.0037499999628098596  0.9998498228559897  1.0000
  Zn  Zn2       1.0  0.0037499999628098596  0.0012499999876032864  0.9996996457119793  1.0000
  Cu  Cu2       1.0  0.0012499999876032864  0.0037499999628098596  0.999549468567969  1.0000
  Zn  Zn3       1.0  0.0037499999628098596  0.0012499999876032864  0.9993992914239587  1.0000
  Cu  Cu3       1.0  0.0012499999876032864  0.0037499999628098596  0.9992491142799483  1.0000
  Zn  Zn4       1.0  0.0037499999628098596  0.006249999628098593  0.0  1.0000
  Cu  Cu4       1.0  0.0012499999876032864  0.008749999603305166  0.9998498228559897  1.0000
  Zn  Zn5       1.0  0.0037499999628098596  0.006249999628098593  0.9996996457119793  1.0000
  Cu  Cu5       1.0  0.0012499999876032864  0.008749999603305166  0.999549468567969  1.0000
  Zn  Zn6       1.0  0.0037499999628098596  0.006249999628098593  0.9993992914239587  1.0000
  Cu  Cu6       1.0  0.0012499999876032864  0.008749999603305166  0.9992491142799483  1.0000
  Zn  Zn7       1.0  0.008749999603305166  0.0012499999876032864  0.0  1.0000
  Cu  Cu7       1.0  0.006249999628098593  0.0037499999628098596  0.9998498228559897  1.0000
  Zn  Zn8       1.0  0.008749999603305166  0.0012499999876032864  0.9996996457119793  1.0000
  Cu  Cu8       1.0  0.006249999628098593  0.0037499999628098596  0.999549468567969  1.0000
  Zn  Zn9       1.0  0.008749999603305166  0.0012499999876032864  0.9993992914239587  1.0000
  Cu  Cu9       1.0  0.006249999628098593  0.0037499999628098596  0.9992491142799483  1.0000
  Zn  Zn10      1.0  0.008749999603305166  0.006249999628098593  0.0  1.0000
  Cu  Cu10      1.0  0.006249999628098593  0.008749999603305166  0.9998498228559897  1.0000
  Zn  Zn11      1.0  0.008749999603305166  0.006249999628098593  0.9996996457119793  1.0000
  Cu  Cu11      1.0  0.006249999628098593  0.008749999603305166  0.999549468567969  1.0000
  Zn  Zn12      1.0  0.008749999603305166  0.006249999628098593  0.9993992914239587  1.0000
  Cu  Cu12      1.0  0.006249999628098593  0.008749999603305166  0.9992491142799483  1.0000
