data_image0
_chemical_formula_structural       COSi12Os12
_chemical_formula_sum              "C1 O1 Si12 Os12"
_cell_length_a       6.801784992218018
_cell_length_b       6.801785053682592
_cell_length_c       36.67819595336914
_cell_angle_alpha    90.0
_cell_angle_beta     90.0
_cell_angle_gamma    60.000000298926196

_space_group_name_H-M_alt    "P 1"
_space_group_IT_number       1

loop_
  _space_group_symop_operation_xyz
  'x, y, z'

loop_
  _atom_site_type_symbol
  _atom_site_label
  _atom_site_symmetry_multiplicity
  _atom_site_fract_x
  _atom_site_fract_y
  _atom_site_fract_z
  _atom_site_occupancy
  C   C1        1.0  0.0035963690782083242  0.0007435914060311189  0.0002191130959444591  1.0000
  O   O1        1.0  0.0035963690782083242  0.0007435914060311189  0.0005462832062953089  1.0000
  Si  Si1       1.0  0.006153846176286576  0.009444852465893157  0.9988103750484011  1.0000
  Si  Si2       1.0  0.0095251564145358  0.0027689497647311293  0.9996375735844806  1.0000
  Si  Si3       1.0  0.00282051248655954  0.006111519056669252  0.9980532995120681  1.0000
  Si  Si4       1.0  0.009444851905937355  0.004444852352057298  0.9988103750484011  1.0000
  Si  Si5       1.0  0.0027689523297188758  0.0077494450527158185  0.999637573178213  1.0000
  Si  Si6       1.0  0.0061115192325437205  0.0011115191009387522  0.9980532995120681  1.0000
  Si  Si7       1.0  0.0044448523442788615  0.006153845758825993  0.9988103750484011  1.0000
  Si  Si8       1.0  0.007749447718222997  0.00952515354585446  0.999637573178213  1.0000
  Si  Si9       1.0  0.0011115190441395061  0.0028205126658128066  0.9980532995120681  1.0000
  Si  Si10      1.0  0.0066811820676879454  0.006681183420188576  0.0  1.0000
  Si  Si11      1.0  1.4517001053025602e-05  1.4516999474560235e-05  0.9985516078009455  1.0000
  Si  Si12      1.0  0.0033478501057684295  0.0033478487461217894  0.9992893234692176  1.0000
  Os  Os1       1.0  0.0066521494907845645  0.004195700755538211  0.9982708622910017  1.0000
  Os  Os2       1.0  0.009985483496722321  0.007529033532340677  0.9990279382336023  1.0000
  Os  Os3       1.0  0.0035963690782083242  0.0007435914060311189  0.9997468843405788  1.0000
  Os  Os4       1.0  0.004195700499417866  0.00919570055316335  0.9982708622910017  1.0000
  Os  Os5       1.0  0.007529033829589092  0.0025290338928208975  0.9990279382336023  1.0000
  Os  Os6       1.0  0.0007435928013399891  0.005703590784714999  0.9997468843405788  1.0000
  Os  Os7       1.0  0.009195700825888043  0.006652149584285608  0.9982708622910017  1.0000
  Os  Os8       1.0  0.0025290337269371003  0.009985482993509515  0.9990279382336023  1.0000
  Os  Os9       1.0  0.005703591935532513  0.0035963685536220123  0.9997468839343112  1.0000
  Os  Os10      1.0  0.0066811845746708245  0.006681182787767136  0.9993377562501762  1.0000
  Os  Os11      1.0  1.4517001053025602e-05  1.4516999474560235e-05  0.9978989190578773  1.0000
  Os  Os12      1.0  0.003347850410627709  0.0033478503271753904  0.9986559945942104  1.0000
