data_image0
_chemical_formula_structural       HIn6Pt3
_chemical_formula_sum              "H1 In6 Pt3"
_cell_length_a       4.616677761077881
_cell_length_b       4.616677882376467
_cell_length_c       36.074485778808594
_cell_angle_alpha    90.0
_cell_angle_beta     90.0
_cell_angle_gamma    119.99999913086315

_space_group_name_H-M_alt    "P 1"
_space_group_IT_number       1

loop_
  _space_group_symop_operation_xyz
  'x, y, z'

loop_
  _atom_site_type_symbol
  _atom_site_label
  _atom_site_symmetry_multiplicity
  _atom_site_fract_x
  _atom_site_fract_y
  _atom_site_fract_z
  _atom_site_occupancy
  H   H1        1.0  0.0049999991098592204  0.00833333209099854  0.0008581171299267928  1.0000
  In  In1       1.0  0.0049999998783298236  0.008333333022749634  0.9989448662642716  1.0000
  In  In2       1.0  0.0016666673328785745  0.001666667326657026  0.0  1.0000
  In  In3       1.0  0.008333333234882249  0.004999999534124452  0.9978999443582917  1.0000
  In  In4       1.0  0.0016666666148404804  0.0016666663949059305  0.9984224053112816  1.0000
  In  In5       1.0  0.008333333234882249  0.004999999534124452  0.9994673272172616  1.0000
  In  In6       1.0  0.0049999991098592204  0.00833333209099854  0.0005165871475121897  1.0000
  Pt  Pt1       1.0  0.004999999323572222  0.008333333022749634  0.9997065976334528  1.0000
  Pt  Pt2       1.0  0.0016666666148404804  0.0016666663949059305  0.9976387138817966  1.0000
  Pt  Pt3       1.0  0.008333333234882249  0.004999999534124452  0.9986836355812434  1.0000
