data_image0
_chemical_formula_structural       COCo6Sb6Co6Sb6
_chemical_formula_sum              "C1 O1 Co12 Sb12"
_cell_length_a       5.241847038269043
_cell_length_b       10.320963491736668
_cell_length_c       38.79233932495117
_cell_angle_alpha    100.89339413711674
_cell_angle_beta     90.0
_cell_angle_gamma    90.0

_space_group_name_H-M_alt    "P 1"
_space_group_IT_number       1

loop_
  _space_group_symop_operation_xyz
  'x, y, z'

loop_
  _atom_site_type_symbol
  _atom_site_label
  _atom_site_symmetry_multiplicity
  _atom_site_fract_x
  _atom_site_fract_y
  _atom_site_fract_z
  _atom_site_occupancy
  C   C1        1.0  0.0025082481840634227  0.004219576967888934  0.0005807576244994254  1.0000
  O   O1        1.0  0.0025082481840634227  0.004219576967888934  0.0008900972937834452  1.0000
  Co  Co1       1.0  0.009992086547514543  0.007222594719948676  0.9998468139534403  1.0000
  Co  Co2       1.0  1.7486600443085824e-05  0.0038967531605152467  0.00012610569631061024  1.0000
  Co  Co3       1.0  7.913800192547056e-06  0.000540716488707576  0.9995029549601105  1.0000
  Co  Co4       1.0  0.0050242843851059085  0.007222799087435362  0.9998468480448729  1.0000
  Co  Co5       1.0  0.00499900966357984  0.0038964660903585877  0.00012603748472988588  1.0000
  Co  Co6       1.0  0.005007913807826834  0.000540716488707576  0.9995029549601105  1.0000
  Sb  Sb1       1.0  0.00750891338312282  0.006064132843288918  0.0003049045761814249  1.0000
  Sb  Sb2       1.0  0.007507913452485457  0.002762938701128  0.999614688284457  1.0000
  Sb  Sb3       1.0  0.00750855235628289  0.009459283650968044  0.999982135946335  1.0000
  Sb  Sb4       1.0  0.0025079958916851253  0.008365408883882288  0.00037326492397307253  1.0000
  Sb  Sb5       1.0  0.002507784463565285  0.005013526642862883  0.9997218097548691  1.0000
  Sb  Sb6       1.0  0.0025065125191031526  0.0017205253947568254  6.938404001338758e-05  1.0000
  Co  Co7       1.0  7.913800192547056e-06  0.00720738330975256  0.9988325550802973  1.0000
  Co  Co8       1.0  7.913800192547056e-06  0.0038740496235545015  0.9991677550063429  1.0000
  Co  Co9       1.0  7.913800192547056e-06  0.000540716488707576  0.9984973550980174  1.0000
  Co  Co10      1.0  0.005007913807826834  0.00720738330975256  0.9988325550802973  1.0000
  Co  Co11      1.0  0.005007913807826834  0.0038740496235545015  0.9991677550063429  1.0000
  Co  Co12      1.0  0.005007913807826834  0.000540716488707576  0.9984973550980174  1.0000
  Sb  Sb7       1.0  0.007507913452485457  0.006096271835974926  0.9992794883306894  1.0000
  Sb  Sb8       1.0  0.007507913452485457  0.002762938701128  0.9986090884223638  1.0000
  Sb  Sb9       1.0  0.007507913452485457  0.009429605522172984  0.9989442884046438  1.0000
  Sb  Sb10      1.0  0.0025079138078268346  0.00831849404839535  0.9993912216550358  1.0000
  Sb  Sb11      1.0  0.0025079138078268346  0.004985160729764714  0.9987208217374696  1.0000
  Sb  Sb12      1.0  0.0025079138078268346  0.0016518275949177882  0.9990560216912372  1.0000
