data_image0
_chemical_formula_structural       HAl3Os3Al3Os3Al3Os3Al3Os3Al3Os3Al3Os3Al3Os3Al3Os3
_chemical_formula_sum              "H1 Al24 Os24"
_cell_length_a       8.576905250549316
_cell_length_b       8.576905240741441
_cell_length_c       101.51356506347656
_cell_angle_alpha    90.0
_cell_angle_beta     90.0
_cell_angle_gamma    59.999999962172616

_space_group_name_H-M_alt    "P 1"
_space_group_IT_number       1

loop_
  _space_group_symop_operation_xyz
  'x, y, z'

loop_
  _atom_site_type_symbol
  _atom_site_label
  _atom_site_symmetry_multiplicity
  _atom_site_fract_x
  _atom_site_fract_y
  _atom_site_fract_z
  _atom_site_occupancy
  H   H1        1.0  0.0008333345258412355  0.0008333367337220921  0.00012136819828904941  1.0000
  Al  Al1       1.0  0.004166665301856298  0.0041666666165134396  0.999147890780609  1.0000
  Al  Al2       1.0  0.0008333317665308912  0.0008333333483793012  0.9994928208042659  1.0000
  Al  Al3       1.0  0.0024999983858638346  0.0025000001705209702  0.9993203556456476  1.0000
  Os  Os1       1.0  0.004166665301856298  0.0041666666165134396  0.9994065882249568  1.0000
  Os  Os2       1.0  0.0008333317665308912  0.0008333333483793012  0.9992341233599181  1.0000
  Os  Os3       1.0  0.0024999983858638346  0.0025000001705209702  0.9990616582012998  1.0000
  Al  Al4       1.0  0.004166665301856298  0.0041666666165134396  0.9996652856693046  1.0000
  Al  Al5       1.0  0.0008333345258412355  0.0008333367337220921  0.0  1.0000
  Al  Al6       1.0  0.0025000028456416195  0.002500001675117766  0.9998402022184517  1.0000
  Os  Os4       1.0  0.004166668158660522  0.004166666114981174  0.9999210376284817  1.0000
  Os  Os5       1.0  0.0008333324907785178  0.0008333342887522987  0.9997458562704417  1.0000
  Os  Os6       1.0  0.0024999983858638346  0.0025000001705209702  0.9995790530899954  1.0000
  Al  Al7       1.0  0.004166665395707092  0.009166666706789247  0.999147890780609  1.0000
  Al  Al8       1.0  0.0008333318144882983  0.005833333313272042  0.9994928208042659  1.0000
  Al  Al9       1.0  0.0024999984797146294  0.007500000260796777  0.9993203556456476  1.0000
  Os  Os7       1.0  0.004166665395707092  0.009166666706789247  0.9994065882249568  1.0000
  Os  Os8       1.0  0.0008333318144882983  0.005833333313272042  0.9992341233599181  1.0000
  Os  Os9       1.0  0.0024999984797146294  0.007500000260796777  0.9990616582012998  1.0000
  Al  Al10      1.0  0.004166665395707092  0.009166666706789247  0.9996652856693046  1.0000
  Al  Al11      1.0  0.0008333344025221891  0.005833336823997899  0.0  1.0000
  Al  Al12      1.0  0.0025000029394924143  0.007500001765393573  0.9998402022184517  1.0000
  Os  Os10      1.0  0.004166668001745184  0.009166666706789247  0.9999210376284817  1.0000
  Os  Os11      1.0  0.0008333326159750788  0.005833334316336573  0.9997458562704417  1.0000
  Os  Os12      1.0  0.0024999984797146294  0.007500000260796777  0.9995790530899954  1.0000
  Al  Al13      1.0  0.009166665579833694  0.0041666666165134396  0.999147890780609  1.0000
  Al  Al14      1.0  0.005833331935923367  0.0008333333483793012  0.9994928208042659  1.0000
  Al  Al15      1.0  0.007499998663841231  0.0025000001705209702  0.9993203556456476  1.0000
  Os  Os13      1.0  0.009166665579833694  0.0041666666165134396  0.9994065882249568  1.0000
  Os  Os14      1.0  0.005833331935923367  0.0008333333483793012  0.9992341233599181  1.0000
  Os  Os15      1.0  0.007499998663841231  0.0025000001705209702  0.9990616582012998  1.0000
  Al  Al16      1.0  0.009166665579833694  0.0041666666165134396  0.9996652856693046  1.0000
  Al  Al17      1.0  0.00583333458664879  0.0008333367337220921  0.0  1.0000
  Al  Al18      1.0  0.007500003123619016  0.002500001675117766  0.9998402022184517  1.0000
  Os  Os16      1.0  0.009166668436637918  0.004166666114981174  0.9999210376284817  1.0000
  Os  Os17      1.0  0.005833332334416233  0.0008333342887522987  0.9997458562704417  1.0000
  Os  Os18      1.0  0.007499998663841231  0.0025000001705209702  0.9995790530899954  1.0000
  Al  Al19      1.0  0.009166664805005123  0.009166666706789247  0.999147890780609  1.0000
  Al  Al20      1.0  0.005833332092465694  0.005833333313272042  0.9994928208042659  1.0000
  Al  Al21      1.0  0.007499998757692025  0.007500000260796777  0.9993203556456476  1.0000
  Os  Os19      1.0  0.009166664805005123  0.009166666706789247  0.9994065882249568  1.0000
  Os  Os20      1.0  0.005833332092465694  0.005833333313272042  0.9992341233599181  1.0000
  Os  Os21      1.0  0.007499998757692025  0.007500000260796777  0.9990616582012998  1.0000
  Al  Al22      1.0  0.009166664805005123  0.009166666706789247  0.9996652856693046  1.0000
  Al  Al23      1.0  0.0058333346804995845  0.005833336823997899  0.0  1.0000
  Al  Al24      1.0  0.00750000321746981  0.007500001765393573  0.9998402022184517  1.0000
  Os  Os22      1.0  0.00916666827972258  0.009166666706789247  0.9999210376284817  1.0000
  Os  Os23      1.0  0.005833332459612792  0.005833334316336573  0.9997458562704417  1.0000
  Os  Os24      1.0  0.007499998757692025  0.007500000260796777  0.9995790530899954  1.0000
