data_image0
_chemical_formula_structural       COV16Ir16
_chemical_formula_sum              "C1 O1 V16 Ir16"
_cell_length_a       6.46936381226399
_cell_length_b       13.469629396986083
_cell_length_c       107.47918701171875
_cell_angle_alpha    80.05112989596535
_cell_angle_beta     64.71297751825377
_cell_angle_gamma    38.974082655739146

_space_group_name_H-M_alt    "P 1"
_space_group_IT_number       1

loop_
  _space_group_symop_operation_xyz
  'x, y, z'

loop_
  _atom_site_type_symbol
  _atom_site_label
  _atom_site_symmetry_multiplicity
  _atom_site_fract_x
  _atom_site_fract_y
  _atom_site_fract_z
  _atom_site_occupancy
  C   C1        1.0  0.006466722833308784  0.007757334042198007  0.9997069240588992  1.0000
  O   O1        1.0  0.006466722833308784  0.007757334042198007  0.9998185738085142  1.0000
  V   V1        1.0  0.005739391864329696  0.009150118157401856  0.9988229127270459  1.0000
  V   V2        1.0  0.0032393918123838268  0.006650118220423776  0.9994767459156328  1.0000
  V   V3        1.0  0.008239391656546226  0.0016501181399291326  0.9990408573064341  1.0000
  V   V4        1.0  0.0007393916955056256  0.004150118025272594  0.9992588019037651  1.0000
  V   V5        1.0  0.006760608135670304  0.00017133462408048034  0.9989119403843468  1.0000
  V   V6        1.0  0.004260608343453773  0.007671334922345286  0.9995657735611624  1.0000
  V   V7        1.0  0.009260607927886836  0.002671334932326572  0.9991298844021134  1.0000
  V   V8        1.0  0.0017606082915079065  0.005171334985367205  0.999347828987466  1.0000
  V   V9        1.0  0.004489391968221429  0.0029001178404194036  0.9995857182066877  1.0000
  V   V10       1.0  0.0019893916565462267  0.00040011806411527036  0.9993677741907595  1.0000
  V   V11       1.0  0.006989391760437958  0.0054001181486654955  0.99893188501674  1.0000
  V   V12       1.0  0.009489392072113165  0.007900117995167648  0.9991498295857174  1.0000
  V   V13       1.0  0.003010608447345508  0.0014213346053628328  0.9994568012785208  1.0000
  V   V14       1.0  0.0005106082980011345  0.008921335028032041  0.9992388566995415  1.0000
  V   V15       1.0  0.005510608239562039  0.003921334913608924  0.998802968088573  1.0000
  V   V16       1.0  0.008010608551237242  0.006421334760111078  0.9990209126575506  1.0000
  Ir  Ir1       1.0  0.008582061400679995  0.009828664990961475  0.9995066193621629  1.0000
  Ir  Ir2       1.0  0.0060820610890047954  0.007328665144459321  0.9992886747931854  1.0000
  Ir  Ir3       1.0  0.0010820611799100645  0.002328665202646212  0.998852785919538  1.0000
  Ir  Ir4       1.0  0.003582061296788267  0.004828665117005311  0.99907073021477  1.0000
  Ir  Ir5       1.0  0.0064179389109952035  0.001992787356230934  0.9993179560865705  1.0000
  Ir  Ir6       1.0  0.003917938859049333  0.009492787464179586  0.9991000115119013  1.0000
  Ir  Ir7       1.0  0.008917938703211732  0.004492787383684944  0.9995359001104166  1.0000
  Ir  Ir8       1.0  0.001417938807103469  0.006992787527201504  0.9988820669382049  1.0000
  Ir  Ir9       1.0  0.007332061504571734  0.003578664954771103  0.9993976470734416  1.0000
  Ir  Ir10      1.0  0.0048320611928965316  0.0010786651082689495  0.9991797025044641  1.0000
  Ir  Ir11      1.0  0.009832061296788264  0.006078664982225113  0.9996155916518569  1.0000
  Ir  Ir12      1.0  0.0023320611409506616  0.008578665216217602  0.9989617579297949  1.0000
  Ir  Ir13      1.0  0.00016793879736361835  0.0007427876007923723  0.9996448724123116  1.0000
  Ir  Ir14      1.0  0.007667938807103469  0.008242787392421305  0.9994269283752918  1.0000
  Ir  Ir15      1.0  0.0026679387032117335  0.003242787518465143  0.998991039227899  1.0000
  Ir  Ir16      1.0  0.005167939014886938  0.005742787364967296  0.9992089837968764  1.0000
