data_image0
_chemical_formula_structural       HV30Ni10
_chemical_formula_sum              "H1 V30 Ni10"
_cell_length_a       10.464629900276359
_cell_length_b       6.618412971496582
_cell_length_c       102.42346954345703
_cell_angle_alpha    90.0
_cell_angle_beta     104.96321728267895
_cell_angle_gamma    71.56505146454386

_space_group_name_H-M_alt    "P 1"
_space_group_IT_number       1

loop_
  _space_group_symop_operation_xyz
  'x, y, z'

loop_
  _atom_site_type_symbol
  _atom_site_label
  _atom_site_symmetry_multiplicity
  _atom_site_fract_x
  _atom_site_fract_y
  _atom_site_fract_z
  _atom_site_occupancy
  H   H1        1.0  0.0087434700018349  0.0047532647604266835  0.0002126594139906029  1.0000
  V   V1        1.0  0.003500000071753765  0.0017499999843863516  0.9998285284130877  1.0000
  V   V2        1.0  0.007499999875210843  0.009750000341576913  0.9996702466485512  1.0000
  V   V3        1.0  0.009499999581956325  0.003750000218027718  0.999986809845269  1.0000
  V   V4        1.0  0.0014999999750421687  0.007750000021484797  0.9995119652060824  1.0000
  V   V5        1.0  0.005499999778499247  0.005750000119756258  0.00014509131883385374  1.0000
  V   V6        1.0  0.0025000000233979668  0.004749999862218671  0.9996702466640993  1.0000
  V   V7        1.0  0.006500000021838102  0.002749999862998604  0.9995119651956781  1.0000
  V   V8        1.0  0.008500000118549698  0.006750000084819258  0.9998285281117116  1.0000
  V   V9        1.0  0.0004999999754321348  0.0007500000381758426  0.00014509104469623995  1.0000
  V   V10       1.0  0.004499999925126506  0.008750000181530854  0.9999868095749892  1.0000
  V   V11       1.0  0.006500000021838102  0.000250000009344183  0.999907669134322  1.0000
  V   V12       1.0  0.0004999999754321348  0.008250000021289814  0.9997493876879956  1.0000
  V   V13       1.0  0.0025000000233979668  0.0022500000085642503  6.595060274319715e-05  1.0000
  V   V14       1.0  0.004499999925126506  0.006250000046442628  0.9995911059273168  1.0000
  V   V15       1.0  0.008500000118549698  0.0042499999497310325  0.9994328244640394  1.0000
  V   V16       1.0  0.005499999778499247  0.008250000254844484  0.9997493873801899  1.0000
  V   V17       1.0  0.009499999581956325  0.006250000353115945  0.999591105906625  1.0000
  V   V18       1.0  0.0014999999750421687  0.00025000003837082584  0.9999076688537548  1.0000
  V   V19       1.0  0.003500000071753765  0.004249999838040773  0.9994328244744437  1.0000
  V   V20       1.0  0.007499999875210843  0.0022499999363122334  6.595029622350515e-05  1.0000
  V   V21       1.0  0.0050000000467959336  0.004749999918063801  0.9998680987737049  1.0000
  V   V22       1.0  0.008999999850253012  0.0027500000163352624  0.9997098170091684  1.0000
  V   V23       1.0  0.0009999999508642696  0.0067499999660296335  2.638023955416886e-05  1.0000
  V   V24       1.0  0.0029999999500843373  0.0007499999776769521  0.9995515355666996  1.0000
  V   V25       1.0  0.00700000014350753  0.008749999577016845  0.00018466168973843203  1.0000
  V   V26       1.0  0.00700000014350753  0.003749999869708004  0.9997889577510946  1.0000
  V   V27       1.0  0.0009999999508642696  0.0017499999772869856  0.9996306763009103  1.0000
  V   V28       1.0  0.0029999999500843373  0.0057499999664196  0.999947239214372  1.0000
  V   V29       1.0  0.0050000000467959336  0.009749999625372643  0.9994723948350609  1.0000
  V   V30       1.0  0.008999999850253012  0.007749999723644104  0.00010552065684068345  1.0000
  Ni  Ni1       1.0  0.0050000000467959336  0.002249999782975575  0.9996702468043829  1.0000
  Ni  Ni2       1.0  0.008999999850253012  0.0002499998812470359  0.999511965330818  1.0000
  Ni  Ni3       1.0  0.0009999999508642696  0.004249999830941407  0.9998285282702322  1.0000
  Ni  Ni4       1.0  0.0029999999500843373  0.008249999538640215  0.00014509118369393436  1.0000
  Ni  Ni5       1.0  0.00700000014350753  0.00624999944192862  0.9999868097204164  1.0000
  Ni  Ni6       1.0  0.0050000000467959336  0.002249999782975575  6.595016108358575e-05  1.0000
  Ni  Ni7       1.0  0.008999999850253012  0.0002499998812470359  0.9999076689784904  1.0000
  Ni  Ni8       1.0  0.0009999999508642696  0.004249999830941407  0.9994328246225599  1.0000
  Ni  Ni9       1.0  0.0029999999500843373  0.008249999538640215  0.9997493875360216  1.0000
  Ni  Ni10      1.0  0.00700000014350753  0.00624999944192862  0.9995911060727442  1.0000
