data_image0
_chemical_formula_structural       COGa20Rh12
_chemical_formula_sum              "C1 O1 Ga20 Rh12"
_cell_length_a       5.048200406938721
_cell_length_b       9.457161777129352
_cell_length_c       104.28084564208984
_cell_angle_alpha    99.94422084059212
_cell_angle_beta     86.46761647148477
_cell_angle_gamma    110.9140379515516

_space_group_name_H-M_alt    "P 1"
_space_group_IT_number       1

loop_
  _space_group_symop_operation_xyz
  'x, y, z'

loop_
  _atom_site_type_symbol
  _atom_site_label
  _atom_site_symmetry_multiplicity
  _atom_site_fract_x
  _atom_site_fract_y
  _atom_site_fract_z
  _atom_site_occupancy
  C   C1        1.0  0.0010915683054879433  0.002450179150552742  0.00014904249711966715  1.0000
  O   O1        1.0  0.0010915683054879433  0.002450179150552742  0.00026411602419132397  1.0000
  Ga  Ga1       1.0  0.0022068436556910423  0.009567024987143683  0.9992715597531489  1.0000
  Ga  Ga2       1.0  0.0021252190388910785  0.004472504107266255  0.9998149198410502  1.0000
  Ga  Ga3       1.0  0.007746105579149416  0.000432975115411488  0.9992796639502395  1.0000
  Ga  Ga4       1.0  0.00780317612969331  0.0054217534943418536  0.9998352286179967  1.0000
  Ga  Ga5       1.0  0.0008407679459421265  0.0038821256051165347  0.9992030508876193  1.0000
  Ga  Ga6       1.0  0.0008407680532726685  0.00888212565639412  0.9997509437086078  1.0000
  Ga  Ga7       1.0  0.009112181658572771  0.006117874497438636  0.9993481731004555  1.0000
  Ga  Ga8       1.0  0.008805479493014258  0.000988340640981856  0.9999196932220434  1.0000
  Ga  Ga9       1.0  0.004463007382066646  0.0029150367459282313  0.9993475393672837  1.0000
  Ga  Ga10      1.0  0.004370375738287659  0.007917226777434274  0.9998919420653167  1.0000
  Ga  Ga11      1.0  0.005489942407285472  0.0070849633566269395  0.9992036846202398  1.0000
  Ga  Ga12      1.0  0.005489942299954931  0.0020849633053493543  0.9997515775545782  1.0000
  Ga  Ga13      1.0  0.0031702937955070875  0.008271398498931402  0.9994939597187331  1.0000
  Ga  Ga14      1.0  0.003377403986008067  0.0032697708116167057  4.113454853528243e-05  1.0000
  Ga  Ga15      1.0  0.006782655924270752  0.0017286014967954652  0.9990572639815357  1.0000
  Ga  Ga16      1.0  0.006782655916338354  0.006728601654901354  0.9996051568045412  1.0000
  Ga  Ga17      1.0  0.009612059843114001  0.00831532458821227  3.636283962954791e-05  1.0000
  Ga  Ga18      1.0  0.009565009311093433  0.003736597679944945  0.9995168010244061  1.0000
  Ga  Ga19      1.0  0.0003879406481839734  0.0012634023713326407  0.9995823156108398  1.0000
  Ga  Ga20      1.0  0.00038794066309590466  0.006263402422610226  0.9990344229625661  1.0000
  Rh  Rh1       1.0  0.001497822116574833  0.0013092048997702325  0.9991170560985178  1.0000
  Rh  Rh2       1.0  0.0014978220619124853  0.006309204844219514  0.9996649492041054  1.0000
  Rh  Rh3       1.0  0.008455127649932954  0.008690795309613242  0.999434167604958  1.0000
  Rh  Rh4       1.0  0.008450163673011504  0.003548261730520342  0.9999733765665741  1.0000
  Rh  Rh5       1.0  0.0034169864007900794  0.0005171202984162692  0.9999482883023065  1.0000
  Rh  Rh6       1.0  0.0036245229812876373  0.005616163914778676  0.9993976819643047  1.0000
  Rh  Rh7       1.0  0.0063284270839450395  0.009383836666367296  0.9997014345646078  1.0000
  Rh  Rh8       1.0  0.006328426767631339  0.004383836187776495  0.9991535417375503  1.0000
  Rh  Rh9       1.0  0.004533008789891371  0.008867024407365113  0.999065759132962  1.0000
  Rh  Rh10      1.0  0.004533008774979439  0.0038670243560875272  0.9996136520670248  1.0000
  Rh  Rh11      1.0  0.0054199409527307995  0.0011329754815334507  0.9994854645655656  1.0000
  Rh  Rh12      1.0  0.005039952630801539  0.006101296881250737  1.704220244263954e-05  1.0000
