data_image0
_chemical_formula_structural       COOs18
_chemical_formula_sum              "C1 O1 Os18"
_cell_length_a       5.151223928212095
_cell_length_b       6.469294741119111
_cell_length_c       99.39923858642578
_cell_angle_alpha    85.54344395918557
_cell_angle_beta     85.85385183705732
_cell_angle_gamma    77.18903511127408

_space_group_name_H-M_alt    "P 1"
_space_group_IT_number       1

loop_
  _space_group_symop_operation_xyz
  'x, y, z'

loop_
  _atom_site_type_symbol
  _atom_site_label
  _atom_site_symmetry_multiplicity
  _atom_site_fract_x
  _atom_site_fract_y
  _atom_site_fract_z
  _atom_site_occupancy
  C   C1        1.0  0.004155418749951388  0.008916259153495603  3.4687529463921784e-05  1.0000
  O   O1        1.0  0.004155418749951388  0.008916259153495603  0.00015541244531543054  1.0000
  Os  Os1       1.0  0.0067766512543769065  0.007820419755765903  0.999935059007977  1.0000
  Os  Os2       1.0  0.000615994035936889  0.0044979916768053425  0.9998540187684838  1.0000
  Os  Os3       1.0  0.004624249099198486  0.0011282204381458836  0.9997730763754955  1.0000
  Os  Os4       1.0  0.0016523105713128578  0.008323519518822717  0.999870742046132  1.0000
  Os  Os5       1.0  0.005618818904964144  0.004929765115855091  0.9997863433479827  1.0000
  Os  Os6       1.0  0.007846304020454112  0.0015626756855564028  0.9999473853515346  1.0000
  Os  Os7       1.0  0.008540995927388296  0.0076981582302632105  0.9996804298906418  1.0000
  Os  Os8       1.0  0.002478438866294798  0.0044170736551677175  0.9995916918668993  1.0000
  Os  Os9       1.0  0.006417833124499034  0.0010837403790352504  0.9995020650402521  1.0000
  Os  Os10      1.0  0.0034885397847674235  0.00830596220611126  0.9996066299569795  1.0000
  Os  Os11      1.0  0.007427933640067638  0.004972629077912067  0.9995170028312692  1.0000
  Os  Os12      1.0  0.009642773171699353  0.0015793689200134394  0.9996956461674377  1.0000
  Os  Os13      1.0  0.0003572268888539212  0.007750407079233458  0.9994124380116942  1.0000
  Os  Os14      1.0  0.004296620643608296  0.0044170736551677175  0.9993228108878569  1.0000
  Os  Os15      1.0  0.008236014539270978  0.0010837403790352504  0.9992331837627435  1.0000
  Os  Os16      1.0  0.0053067219246224736  0.00830596220611126  0.9993377486767542  1.0000
  Os  Os17      1.0  0.009246115779922688  0.004972629077912067  0.9992481215510438  1.0000
  Os  Os18      1.0  0.0013673279417768594  0.0016392958017795998  0.9994273758005783  1.0000
