data_image0
_chemical_formula_structural       In3Pd2In3Pd2H
_chemical_formula_sum              "In6 Pd4 H1"
_cell_length_a       4.664609432220459
_cell_length_b       4.664609605721102
_cell_length_c       36.212032318115234
_cell_angle_alpha    90.0
_cell_angle_beta     90.0
_cell_angle_gamma    119.99999876959585

_space_group_name_H-M_alt    "P 1"
_space_group_IT_number       1

loop_
  _space_group_symop_operation_xyz
  'x, y, z'

loop_
  _atom_site_type_symbol
  _atom_site_label
  _atom_site_symmetry_multiplicity
  _atom_site_fract_x
  _atom_site_fract_y
  _atom_site_fract_z
  _atom_site_occupancy
  In  In1       1.0  0.0016666615063652052  0.0008333387057815497  0.9989508327761547  1.0000
  In  In2       1.0  0.005000009598260912  0.007499989966716648  0.9994973640193634  1.0000
  In  In3       1.0  0.008333187223043452  0.004166812893164537  6.0052300872864566e-05  1.0000
  Pd  Pd1       1.0  0.005000015785414784  0.007499983972567587  0.00022071368587788995  1.0000
  Pd  Pd2       1.0  0.008333328313087413  0.004166671800117401  0.9991773230641023  1.0000
  In  In4       1.0  0.0016666615063652052  0.0008333387057815497  0.9973957342995988  1.0000
  In  In5       1.0  0.004999994644962608  0.007500005182633496  0.9979513036741553  1.0000
  In  In6       1.0  0.008333328313087413  0.004166671800117401  0.9983952629901007  1.0000
  Pd  Pd3       1.0  0.004999994644962608  0.007500005182633496  0.9987243420767096  1.0000
  Pd  Pd4       1.0  0.008333328313087413  0.004166671800117401  0.9976222245875465  1.0000
  H   H1        1.0  0.008333338940166284  0.00916666126885859  0.0  1.0000
