data_image0
_chemical_formula_structural       HMn3Se3Mn3Se3Mn3Se3Mn3Se3
_chemical_formula_sum              "H1 Mn12 Se12"
_cell_length_a       7.080291143711756
_cell_length_b       7.080291271209717
_cell_length_c       104.68620300292969
_cell_angle_alpha    90.0
_cell_angle_beta     90.0
_cell_angle_gamma    120.00000059568153

_space_group_name_H-M_alt    "P 1"
_space_group_IT_number       1

loop_
  _space_group_symop_operation_xyz
  'x, y, z'

loop_
  _atom_site_type_symbol
  _atom_site_label
  _atom_site_symmetry_multiplicity
  _atom_site_fract_x
  _atom_site_fract_y
  _atom_site_fract_z
  _atom_site_occupancy
  H   H1        1.0  5.621999970624558e-07  1.0320499914657597e-06  0.00011768999295262959  1.0000
  Mn  Mn1       1.0  0.009999794066582409  0.009999734411065461  0.9998884802139791  1.0000
  Mn  Mn2       1.0  0.001666872476550128  0.003333598797362893  0.9992951368429712  1.0000
  Mn  Mn3       1.0  0.00333353899538087  0.0016669322023929092  0.9995712494752733  1.0000
  Se  Se1       1.0  0.0016644881666099235  0.003328753324725967  0.9997061325787473  1.0000
  Se  Se2       1.0  0.0033338956242342016  0.001667698816831618  0.0  1.0000
  Se  Se3       1.0  2.0579999281036876e-07  2.6554999335352997e-07  0.999433193016781  1.0000
  Mn  Mn4       1.0  0.009999794066582409  0.004999734397424243  0.9998884802139791  1.0000
  Mn  Mn5       1.0  0.001666872476550128  0.00833359875527095  0.9992951368429712  1.0000
  Mn  Mn6       1.0  0.00333353899538087  0.0066669320357322925  0.9995712494752733  1.0000
  Se  Se4       1.0  0.0016644881666099235  0.008328753545708674  0.9997061325787473  1.0000
  Se  Se5       1.0  0.0033338956242342016  0.006667698585076725  0.0  1.0000
  Se  Se6       1.0  2.0579999281036876e-07  0.005000265438038263  0.999433193016781  1.0000
  Mn  Mn7       1.0  0.00499979435820396  0.009999734535830264  0.9998884802139791  1.0000
  Mn  Mn8       1.0  0.00666687264058725  0.0033335989296989768  0.9992951368429712  1.0000
  Mn  Mn9       1.0  0.008333539007531768  0.0016669323680203075  0.9995712494752733  1.0000
  Se  Se7       1.0  0.006664488026874598  0.0033287534228561315  0.9997061325787473  1.0000
  Se  Se8       1.0  0.0083338956363851  0.001667698917364739  0.0  1.0000
  Se  Se9       1.0  0.005000205969870284  2.6558611491473854e-07  0.999433193016781  1.0000
  Mn  Mn10      1.0  0.00499979435820396  0.004999734577922207  0.9998884802139791  1.0000
  Mn  Mn11      1.0  0.00666687264058725  0.008333598858335484  0.9992951368429712  1.0000
  Mn  Mn12      1.0  0.008333539007531768  0.006666932062853714  0.9995712494752733  1.0000
  Se  Se10      1.0  0.006664488026874598  0.008328753496886982  0.9997061325787473  1.0000
  Se  Se11      1.0  0.0083338956363851  0.006667698875272796  0.0  1.0000
  Se  Se12      1.0  0.005000205969870284  0.00500026554402297  0.999433193016781  1.0000
