data_image0
_chemical_formula_structural       HPd8Ti4
_chemical_formula_sum              "H1 Pd8 Ti4"
_cell_length_a       4.637462139129639
_cell_length_b       5.000176394128151
_cell_length_c       98.76083374023438
_cell_angle_alpha    90.10594080651576
_cell_angle_beta     90.0
_cell_angle_gamma    90.0

_space_group_name_H-M_alt    "P 1"
_space_group_IT_number       1

loop_
  _space_group_symop_operation_xyz
  'x, y, z'

loop_
  _atom_site_type_symbol
  _atom_site_label
  _atom_site_symmetry_multiplicity
  _atom_site_fract_x
  _atom_site_fract_y
  _atom_site_fract_z
  _atom_site_occupancy
  H   H1        1.0  0.0050000017512019735  0.00014511029657757088  0.00012590530480702182  1.0000
  Pd  Pd1       1.0  0.009999998682582  0.009854889644751078  0.9998888093142156  1.0000
  Pd  Pd2       1.0  0.0050000037594611175  0.007977283429740212  6.358461492934986e-05  1.0000
  Pd  Pd3       1.0  3.550000081198938e-09  0.004819748432498146  4.5119610677799444e-07  1.0000
  Pd  Pd4       1.0  0.0049999985379873425  0.006989441129371878  0.9997914374961486  1.0000
  Pd  Pd5       1.0  1.4500000237245125e-09  0.0041830215824988325  0.9994666759117686  1.0000
  Pd  Pd6       1.0  0.0050000013495501445  0.002040164231032436  0.9996746881598422  1.0000
  Pd  Pd7       1.0  1.4500000237245125e-09  0.009100213632564672  0.9995968552050083  1.0000
  Pd  Pd8       1.0  0.0050000013495501445  0.001243071345372098  0.999388842884074  1.0000
  Ti  Ti1       1.0  1.4500000237245125e-09  0.00449876062858188  0.9997397776556156  1.0000
  Ti  Ti2       1.0  0.004999999742942829  0.0023001265641283443  0.9999387233559416  1.0000
  Ti  Ti3       1.0  1.4500000237245125e-09  0.008784474586481624  0.9993237534611613  1.0000
  Ti  Ti4       1.0  0.0050000013495501445  0.006641617980048278  0.9995317654075421  1.0000
