data_image0
_chemical_formula_structural       CONi24Sb8
_chemical_formula_sum              "C1 O1 Ni24 Sb8"
_cell_length_a       9.774419762631974
_cell_length_b       6.870729732368763
_cell_length_c       103.13578796386719
_cell_angle_alpha    79.73185083213076
_cell_angle_beta     101.14018324096187
_cell_angle_gamma    56.505557620024994

_space_group_name_H-M_alt    "P 1"
_space_group_IT_number       1

loop_
  _space_group_symop_operation_xyz
  'x, y, z'

loop_
  _atom_site_type_symbol
  _atom_site_label
  _atom_site_symmetry_multiplicity
  _atom_site_fract_x
  _atom_site_fract_y
  _atom_site_fract_z
  _atom_site_occupancy
  C   C1        1.0  0.0034324598815835996  0.0004748828355746762  7.138023377872163e-05  1.0000
  O   O1        1.0  0.0034324598815835996  0.0004748828355746762  0.0001877313564196267  1.0000
  Ni  Ni1       1.0  0.009648656129501974  0.00767701898409304  0.9996986483630615  1.0000
  Ni  Ni2       1.0  0.0070515170514955745  0.00546961895887638  0.9998919860608625  1.0000
  Ni  Ni3       1.0  0.0021415600438012064  0.0002526428447228178  0.9995063419948299  1.0000
  Ni  Ni4       1.0  0.004641559708869754  0.0027526429374862063  0.9993055397992942  1.0000
  Ni  Ni5       1.0  0.007834652657979967  0.004559550122851879  0.9995620115896598  1.0000
  Ni  Ni6       1.0  0.00527648498908566  0.002126919029339658  0.999762399250611  1.0000
  Ni  Ni7       1.0  0.0003346528877887191  0.007059549803815178  0.9993612096636417  1.0000
  Ni  Ni8       1.0  0.002569155680364665  0.00983280962117926  0.9999302785491561  1.0000
  Ni  Ni9       1.0  0.0064553970745858434  0.0021881484143531937  0.9995515769690682  1.0000
  Ni  Ni10      1.0  0.0039661673299334795  0.009697735723845559  0.9997532202490685  1.0000
  Ni  Ni11      1.0  0.008955397081706949  0.004688148615485027  0.9993507750674707  1.0000
  Ni  Ni12      1.0  0.001349517320858313  0.007161195590426742  0.9999239235056012  1.0000
  Ni  Ni13      1.0  0.008516373777579812  0.007655734381205957  0.9998944860249269  1.0000
  Ni  Ni14      1.0  0.006020815680709697  0.005124044645984892  0.9993159747159607  1.0000
  Ni  Ni15      1.0  0.0009315123303224584  0.00016719074987429398  0.9997076985867657  1.0000
  Ni  Ni16      1.0  0.0035208156735885895  0.002624044444853058  0.999516776617558  1.0000
  Ni  Ni17      1.0  0.007704740059993142  0.008440120095845506  0.9994512288875484  1.0000
  Ni  Ni18      1.0  0.005204739978642821  0.005940120068103183  0.9996520307857275  1.0000
  Ni  Ni19      1.0  0.0002047402786172114  0.000940119839229028  0.9992504268912333  1.0000
  Ni  Ni20      1.0  0.0026802454454244264  0.003362395417549908  0.9998473051216391  1.0000
  Ni  Ni21      1.0  0.009795259557540986  0.003895412461966386  0.9998235369487619  1.0000
  Ni  Ni22      1.0  0.007271472739538111  0.0013720730789296576  0.9992155208975921  1.0000
  Ni  Ni23      1.0  0.002271472625136759  0.006372072874330034  0.9996171244769945  1.0000
  Ni  Ni24      1.0  0.004771472318041262  0.008872072902072356  0.9994163228606644  1.0000
  Sb  Sb1       1.0  0.006611037862913571  0.008283164442146738  0.9996645317678778  1.0000
  Sb  Sb2       1.0  0.004182840499175979  0.005699890633663927  0.9998757106339612  1.0000
  Sb  Sb3       1.0  0.009111038321525025  0.000783164532309285  0.9994637300954766  1.0000
  Sb  Sb4       1.0  0.0016110383286461328  0.0032831647334411185  0.9992629281592038  1.0000
  Sb  Sb5       1.0  0.0008651745466431009  0.0040290285002864785  0.9996046234912878  1.0000
  Sb  Sb6       1.0  0.008375984080671202  0.0015855383684412047  0.9998197159463004  1.0000
  Sb  Sb7       1.0  0.003365174433770513  0.0065290285280288005  0.9994038215895522  1.0000
  Sb  Sb8       1.0  0.005865174515120836  0.009029028555771122  0.999203019691373  1.0000
