data_image0
_chemical_formula_structural       COAl12Fe4Si8Al12Fe4Si8
_chemical_formula_sum              "C1 O1 Al24 Fe8 Si16"
_cell_length_a       6.101504325866699
_cell_length_b       9.52916431427002
_cell_length_c       106.56841278076172
_cell_angle_alpha    90.0
_cell_angle_beta     90.0
_cell_angle_gamma    90.0

_space_group_name_H-M_alt    "P 1"
_space_group_IT_number       1

loop_
  _space_group_symop_operation_xyz
  'x, y, z'

loop_
  _atom_site_type_symbol
  _atom_site_label
  _atom_site_symmetry_multiplicity
  _atom_site_fract_x
  _atom_site_fract_y
  _atom_site_fract_z
  _atom_site_occupancy
  C   C1        1.0  0.008131806271199369  0.00819325571156398  0.00012021278699697561  1.0000
  O   O1        1.0  0.008131806271199369  0.00819325571156398  0.00023281673788233003  1.0000
  Al  Al1       1.0  1.987749904861227e-06  4.040275320957721e-05  0.9994158260703737  1.0000
  Al  Al2       1.0  0.005001987666717048  4.040275320957721e-05  0.9991298716462506  1.0000
  Al  Al3       1.0  1.987749904861227e-06  0.0050404028737888  0.9994158260703737  1.0000
  Al  Al4       1.0  0.005001987666717048  0.0050404028737888  0.9991298716462506  1.0000
  Al  Al5       1.0  0.006337947926902788  0.008678302115441142  0.9989242096273948  1.0000
  Al  Al6       1.0  0.008666027113465985  0.0014025039253382162  0.9992101637718636  1.0000
  Al  Al7       1.0  0.006337947926902788  0.006402504085621844  0.9993355339447607  1.0000
  Al  Al8       1.0  0.008666027113465985  0.0036783016619557564  0.9990495798002919  1.0000
  Al  Al9       1.0  0.0036660271012549294  0.0014025039253382162  0.9993355339447607  1.0000
  Al  Al10      1.0  0.0013379482199681115  0.008678302115441142  0.9990495798002919  1.0000
  Al  Al11      1.0  0.0036660271012549294  0.0036783016619557564  0.9989242096273948  1.0000
  Al  Al12      1.0  0.0013379482199681115  0.006402504085621844  0.9992101637718636  1.0000
  Fe  Fe1       1.0  0.00011362924889281876  0.002540402842513946  0.9994158260703737  1.0000
  Fe  Fe2       1.0  0.004890346263127959  0.00754040329599933  0.9991298716462506  1.0000
  Fe  Fe3       1.0  0.009890345970062636  0.00754040329599933  0.9994158260703737  1.0000
  Fe  Fe4       1.0  0.005113629070306137  0.002540402842513946  0.9991298716462506  1.0000
  Si  Si1       1.0  0.006713685147379035  0.0015848071024543203  0.9989370205941058  1.0000
  Si  Si2       1.0  0.008290289892989737  0.008495998645123279  0.9992229747385746  1.0000
  Si  Si3       1.0  0.006713685147379035  0.003495998582573571  0.9993227229780497  1.0000
  Si  Si4       1.0  0.008290289892989737  0.0065848071650040285  0.9990367685539265  1.0000
  Si  Si5       1.0  0.003290289880778682  0.008495998645123279  0.9993227229780497  1.0000
  Si  Si6       1.0  0.001713685440444359  0.0015848071024543203  0.9990367685539265  1.0000
  Si  Si7       1.0  0.003290289880778682  0.0065848071650040285  0.9989370205941058  1.0000
  Si  Si8       1.0  0.001713685440444359  0.003495998582573571  0.9992229747385746  1.0000
  Al  Al13      1.0  0.009871821188810501  0.009959597704796002  0.0  1.0000
  Al  Al14      1.0  0.005001987666717048  4.040275320957721e-05  0.9997017799351882  1.0000
  Al  Al15      1.0  0.0001322619453450559  0.004957693394565661  0.9999999983220738  1.0000
  Al  Al16      1.0  0.005001987666717048  0.0050404028737888  0.9997017799351882  1.0000
  Al  Al17      1.0  0.006337947926902788  0.008678302115441142  0.999496117636678  1.0000
  Al  Al18      1.0  0.008689200643422965  0.0013085917933669388  0.9997816324441309  1.0000
  Al  Al19      1.0  0.006391791353588238  0.006426914109267635  0.9999153670792486  1.0000
  Al  Al20      1.0  0.008666027113465985  0.0036783016619557564  0.9996214878095752  1.0000
  Al  Al21      1.0  0.003611183283874327  0.0014269632068792568  0.9999154129425654  1.0000
  Al  Al22      1.0  0.0013379482199681115  0.008678302115441142  0.9996214878095752  1.0000
  Al  Al23      1.0  0.0036660271012549294  0.0036783016619557564  0.999496117636678  1.0000
  Al  Al24      1.0  0.0013146255624998146  0.0063079820939950975  0.9997815591746858  1.0000
  Fe  Fe5       1.0  0.009998012064639739  0.002478379529149315  0.9999677172587822  1.0000
  Fe  Fe6       1.0  0.004890346263127959  0.00754040329599933  0.9997017799351882  1.0000
  Fe  Fe7       1.0  6.038249920065212e-06  0.007478801215826217  0.9999676417521022  1.0000
  Fe  Fe8       1.0  0.005113629070306137  0.002540402842513946  0.9997017799351882  1.0000
  Si  Si9       1.0  0.006713685147379035  0.0015848071024543203  0.9995089291626978  1.0000
  Si  Si10      1.0  0.008282554189536833  0.008438388800079423  0.9997954434548707  1.0000
  Si  Si11      1.0  0.006788406425648702  0.003430025841536269  0.9998911456549139  1.0000
  Si  Si12      1.0  0.008290289892989737  0.0065848071650040285  0.9996086768428641  1.0000
  Si  Si13      1.0  0.0032170534668182066  0.008430081416952052  0.9998911031474496  1.0000
  Si  Si14      1.0  0.001713685440444359  0.0015848071024543203  0.9996086768428641  1.0000
  Si  Si15      1.0  0.003290289880778682  0.0065848071650040285  0.9995089291626978  1.0000
  Si  Si16      1.0  0.0017209261382481354  0.0034381834962995093  0.9997954921147312  1.0000
