data_image0
_chemical_formula_structural       COCu8Zn8Cu8Zn8
_chemical_formula_sum              "C1 O1 Cu16 Zn16"
_cell_length_a       5.256327779286146
_cell_length_b       8.801332364427665
_cell_length_c       103.22438049316406
_cell_angle_alpha    88.0730438024271
_cell_angle_beta     88.07169915215785
_cell_angle_gamma    84.16575837759025

_space_group_name_H-M_alt    "P 1"
_space_group_IT_number       1

loop_
  _space_group_symop_operation_xyz
  'x, y, z'

loop_
  _atom_site_type_symbol
  _atom_site_label
  _atom_site_symmetry_multiplicity
  _atom_site_fract_x
  _atom_site_fract_y
  _atom_site_fract_z
  _atom_site_occupancy
  C   C1        1.0  0.0023836532596858786  0.0010020034147298672  0.00011654556228618243  1.0000
  O   O1        1.0  0.0023836532596858786  0.0010020034147298672  0.00023279682634530632  1.0000
  Cu  Cu1       1.0  0.0025000000955097148  0.0010714285817661426  0.9999225933072128  1.0000
  Cu  Cu2       1.0  0.00035714277678388116  0.005000000119186115  0.9995777374818411  1.0000
  Cu  Cu3       1.0  0.0017857142322547253  0.005714285911307659  0.9998076417741573  1.0000
  Cu  Cu4       1.0  0.0010714285379494748  0.0003571428694567287  0.9996926895922706  1.0000
  Cu  Cu5       1.0  0.004642857275386673  0.009642857342311458  0.9994627854417776  1.0000
  Cu  Cu6       1.0  0.0025000000324869095  0.003571428534943026  0.9991179295450859  1.0000
  Cu  Cu7       1.0  0.003928571399316947  0.00428571432706457  0.99934783354884  1.0000
  Cu  Cu8       1.0  0.003214285553993411  0.008928571550189912  0.999232881438631  1.0000
  Zn  Zn1       1.0  0.003928571599144236  0.0030357144036842155  0.9997501657181765  1.0000
  Zn  Zn2       1.0  0.004642857156513643  0.008392857206098754  0.9998651173235563  1.0000
  Zn  Zn3       1.0  0.0032142857896836057  0.0076785714139772105  0.9996352136085161  1.0000
  Zn  Zn4       1.0  0.0003571428351924639  0.0037499999829734123  0.9999800693633161  1.0000
  Zn  Zn5       1.0  0.0010714285816302883  0.001607142925857301  0.9992903574221356  1.0000
  Zn  Zn6       1.0  0.001785714351127755  0.006964286047520362  0.9994053096036646  1.0000
  Zn  Zn7       1.0  0.00035714280701610484  0.006250000255398818  0.9991754056002141  1.0000
  Zn  Zn8       1.0  0.0025000000550325853  0.002321428611562671  0.9995202614260121  1.0000
  Cu  Cu9       1.0  0.007500000350795237  0.0010714285817661426  0.9999225933775103  1.0000
  Cu  Cu10      1.0  0.00535714312071021  0.005000000119186115  0.9995777375519866  1.0000
  Cu  Cu11      1.0  0.006785714487540248  0.005714285911307659  0.9998076412670268  1.0000
  Cu  Cu12      1.0  0.006071428261390159  0.0003571428694567287  0.9996926896634795  1.0000
  Cu  Cu13      1.0  0.009642857530672197  0.009642857342311458  0.9994627855120751  1.0000
  Cu  Cu14      1.0  0.007499999933209206  0.003571428534943026  0.999117929615991  1.0000
  Cu  Cu15      1.0  0.008928571300039243  0.00428571432706457  0.9993478336197451  1.0000
  Cu  Cu16      1.0  0.008214285454715708  0.008928571550189912  0.9992328815095359  1.0000
  Zn  Zn9       1.0  0.008928571854429758  0.0030357144036842155  0.9997501657884741  1.0000
  Zn  Zn10      1.0  0.009642857411799165  0.008392857206098754  0.9998651173938539  1.0000
  Zn  Zn11      1.0  0.008214286044969129  0.0076785714139772105  0.9996352136788137  1.0000
  Zn  Zn12      1.0  0.00535714300183718  0.0037499999829734123  0.9999800694337654  1.0000
  Zn  Zn13      1.0  0.0060714283937117796  0.001607142925857301  0.9992903574931924  1.0000
  Zn  Zn14      1.0  0.006785714606413278  0.006964286047520362  0.9994053093852481  1.0000
  Zn  Zn15      1.0  0.005357142530456789  0.006250000255398818  0.999175405382709  1.0000
  Zn  Zn16      1.0  0.00749999977847327  0.002321428611562671  0.999520261497221  1.0000
