data_image0
_chemical_formula_structural       COTi18
_chemical_formula_sum              "C1 O1 Ti18"
_cell_length_a       4.593623638153076
_cell_length_b       9.61590907823593
_cell_length_c       101.2295150756836
_cell_angle_alpha    72.82778251754408
_cell_angle_beta     90.0
_cell_angle_gamma    118.5359973215835

_space_group_name_H-M_alt    "P 1"
_space_group_IT_number       1

loop_
  _space_group_symop_operation_xyz
  'x, y, z'

loop_
  _atom_site_type_symbol
  _atom_site_label
  _atom_site_symmetry_multiplicity
  _atom_site_fract_x
  _atom_site_fract_y
  _atom_site_fract_z
  _atom_site_occupancy
  C   C1        1.0  0.0012442740919007794  0.006655215403296907  0.9999994296729178  1.0000
  O   O1        1.0  0.0012442740919007794  0.006655215403296907  0.00011797182641001185  1.0000
  Ti  Ti1       1.0  0.008755725493597577  0.0041666664481669665  0.9997429146425096  1.0000
  Ti  Ti2       1.0  0.008755725035370263  0.009166666092324598  0.9996026864200711  1.0000
  Ti  Ti3       1.0  0.005422392251407604  0.005833333308361939  0.9995559439784799  1.0000
  Ti  Ti4       1.0  0.005422392358474685  0.0008333333130440755  0.999696172210767  1.0000
  Ti  Ti5       1.0  0.002089058388947141  0.007499999700343268  0.9997896576597765  1.0000
  Ti  Ti6       1.0  0.002089058999231302  0.002500000056185637  0.9996494294644828  1.0000
  Ti  Ti7       1.0  0.008755725493597577  0.0041666664481669665  0.9994624582247774  1.0000
  Ti  Ti8       1.0  0.008755725035370263  0.009166666092324598  0.9993222300023388  1.0000
  Ti  Ti9       1.0  0.005422392251407604  0.005833333308361939  0.9992754872663442  1.0000
  Ti  Ti10      1.0  0.005422392358474685  0.0008333333130440755  0.9994157154986313  1.0000
  Ti  Ti11      1.0  0.002089058388947141  0.007499999700343268  0.9995092012420442  1.0000
  Ti  Ti12      1.0  0.002089058999231302  0.002500000056185637  0.999368972752347  1.0000
  Ti  Ti13      1.0  0.008755725493597577  0.0041666664481669665  0.9991820018070451  1.0000
  Ti  Ti14      1.0  0.008755725035370263  0.009166666092324598  0.9990417735846066  1.0000
  Ti  Ti15      1.0  0.005422392251407604  0.005833333308361939  0.9989950308486119  1.0000
  Ti  Ti16      1.0  0.005422392358474685  0.0008333333130440755  0.999135259080899  1.0000
  Ti  Ti17      1.0  0.002089058388947141  0.007499999700343268  0.9992287445299084  1.0000
  Ti  Ti18      1.0  0.002089058999231302  0.002500000056185637  0.9990885163346147  1.0000
