data_image0
_chemical_formula_structural       HZn18
_chemical_formula_sum              "H1 Zn18"
_cell_length_a       5.916443354908058
_cell_length_b       7.014632922325925
_cell_length_c       98.56653594970703
_cell_angle_alpha    94.93936638194093
_cell_angle_beta     91.37235853843093
_cell_angle_gamma    114.56505683293838

_space_group_name_H-M_alt    "P 1"
_space_group_IT_number       1

loop_
  _space_group_symop_operation_xyz
  'x, y, z'

loop_
  _atom_site_type_symbol
  _atom_site_label
  _atom_site_symmetry_multiplicity
  _atom_site_fract_x
  _atom_site_fract_y
  _atom_site_fract_z
  _atom_site_occupancy
  H   H1        1.0  0.002292487703370615  0.0009114936541121011  5.620524304561045e-05  1.0000
  Zn  Zn1       1.0  0.006845882096409031  0.008532950520214999  0.9993623790670734  1.0000
  Zn  Zn2       1.0  0.0032095186143473067  0.005199617351300919  0.999450203199205  1.0000
  Zn  Zn3       1.0  0.009573155116211764  0.0018662840355839342  0.9995380276342831  1.0000
  Zn  Zn4       1.0  0.0021489125102612744  0.009088506146235948  0.9994355660709403  1.0000
  Zn  Zn5       1.0  0.008512548848697728  0.005755172977321869  0.9995233902043257  1.0000
  Zn  Zn6       1.0  0.0057852760566339985  0.0024218395148019795  0.9993477417103329  1.0000
  Zn  Zn7       1.0  0.00593679118216496  0.008532950520214999  0.9996258516910762  1.0000
  Zn  Zn8       1.0  0.0023004277591498873  0.005199617351300919  0.9997136758232927  1.0000
  Zn  Zn9       1.0  0.00906520640030302  0.0017401907638208193  0.9998160747562581  1.0000
  Zn  Zn10      1.0  0.0012398215960172031  0.009088506146235948  0.9996990383925858  1.0000
  Zn  Zn11      1.0  0.007583633582978722  0.005581555641767616  0.9997833162472014  1.0000
  Zn  Zn12      1.0  0.004876185299847666  0.0024218395148019795  0.9996112143345621  1.0000
  Zn  Zn13      1.0  0.005256592897340594  0.008852178133246565  0.9999222161811873  1.0000
  Zn  Zn14      1.0  0.0017294168272949202  0.005542743302724669  5.798983668570176e-06  1.0000
  Zn  Zn15      1.0  0.007495113332377282  0.002741410353023732  5.066643971472838e-05  1.0000
  Zn  Zn16      1.0  0.0004268446831261028  0.008845367652911596  0.9999678686595905  1.0000
  Zn  Zn17      1.0  0.006399760224539676  0.006005346265818917  4.599820884548294e-05  1.0000
  Zn  Zn18      1.0  0.003732733788531064  0.0024007392397652114  0.9998924692307309  1.0000
