data_image0
_chemical_formula_structural       HSi8Rh8Si8Rh8
_chemical_formula_sum              "H1 Si16 Rh16"
_cell_length_a       5.640079233626008
_cell_length_b       6.537318239993838
_cell_length_c       109.22390747070312
_cell_angle_alpha    90.23817633073013
_cell_angle_beta     107.51635521605245
_cell_angle_gamma    72.4836447892339

_space_group_name_H-M_alt    "P 1"
_space_group_IT_number       1

loop_
  _space_group_symop_operation_xyz
  'x, y, z'

loop_
  _atom_site_type_symbol
  _atom_site_label
  _atom_site_symmetry_multiplicity
  _atom_site_fract_x
  _atom_site_fract_y
  _atom_site_fract_z
  _atom_site_occupancy
  H   H1        1.0  0.0034148013392892897  0.006191251422508251  0.00010471492030790633  1.0000
  Si  Si1       1.0  0.004637732672751853  0.004617088434776455  0.9989739841946198  1.0000
  Si  Si2       1.0  0.004637732441379751  0.00961708824268838  0.9992732467738572  1.0000
  Si  Si3       1.0  0.0007975912716293209  0.004243071039722047  0.9992956321771133  1.0000
  Si  Si4       1.0  0.00079759127191003  0.00924307114777159  0.9989963702811766  1.0000
  Si  Si5       1.0  0.005797590725089188  0.005272314670158265  0.9993572353809893  1.0000
  Si  Si6       1.0  0.005797591149944615  0.00027231435576410796  0.9990579728046329  1.0000
  Si  Si7       1.0  0.009637732587178103  0.005646331765075053  0.9990355871327301  1.0000
  Si  Si8       1.0  0.009637732240587797  0.00064633165702551  0.9993348492961397  1.0000
  Rh  Rh1       1.0  0.009030113462984168  0.007161863469096832  0.9994181561787356  1.0000
  Rh  Rh2       1.0  0.009030113173722255  0.002161863210978479  0.9991188938641499  1.0000
  Rh  Rh3       1.0  0.006405210231584063  0.0016641843144545587  0.9994479433761015  1.0000
  Rh  Rh4       1.0  0.006405210635502762  0.006664184272435292  0.9991486812135456  1.0000
  Rh  Rh5       1.0  0.0014052105689780524  0.0027275393357002685  0.9995115878855032  1.0000
  Rh  Rh6       1.0  0.00140521074241356  0.0077275394437498115  0.9992123254465471  1.0000
  Rh  Rh7       1.0  0.00403011322358537  0.008225218640411352  0.9994818006792101  1.0000
  Rh  Rh8       1.0  0.004030113223304661  0.0032252185323618085  0.9991825380962978  1.0000
  Si  Si9       1.0  0.004637732672751853  0.004617088434776455  0.9995725086734688  1.0000
  Si  Si10      1.0  0.004522190292655503  0.009727685954127985  0.9998750028334016  1.0000
  Si  Si11      1.0  0.0008671586249203674  0.0044174011738540775  0.9999052551869893  1.0000
  Si  Si12      1.0  0.00079759127191003  0.00924307114777159  0.9995948947600256  1.0000
  Si  Si13      1.0  0.005829947097360214  0.0053617046573982375  0.9999706649979684  1.0000
  Si  Si14      1.0  0.005797591149944615  0.00027231435576410796  0.9996564972834819  1.0000
  Si  Si15      1.0  0.009637732587178103  0.005646331765075053  0.9996341113387238  1.0000
  Si  Si16      1.0  0.00934258797312835  0.0006676783449430086  0.9999282773975738  1.0000
  Rh  Rh9       1.0  0.008770893655157146  0.007541622796951455  5.952840299575324e-06  1.0000
  Rh  Rh10      1.0  0.009030113173722255  0.002161863210978479  0.9997174186158542  1.0000
  Rh  Rh11      1.0  0.005424221270531426  0.0021339492118069166  4.4260247221161945e-05  1.0000
  Rh  Rh12      1.0  0.006405210635502762  0.006664184272435292  0.9997472054195392  1.0000
  Rh  Rh13      1.0  0.00036226724990699104  0.002867706905558668  8.10897752643601e-05  1.0000
  Rh  Rh14      1.0  0.00140521074241356  0.0077275394437498115  0.9998108499253962  1.0000
  Rh  Rh15      1.0  0.0038300849411588185  0.008495605418589501  6.164028449721967e-05  1.0000
  Rh  Rh16      1.0  0.004030113223304661  0.0032252185323618085  0.9997810625751468  1.0000
