data_image0
_chemical_formula_structural       CORe4Ir12Re4Ir12
_chemical_formula_sum              "C1 O1 Re8 Ir24"
_cell_length_a       5.550826549530029
_cell_length_b       11.944546418686437
_cell_length_c       100.85204315185547
_cell_angle_alpha    68.34657452595276
_cell_angle_beta     90.0
_cell_angle_gamma    62.30813084461994

_space_group_name_H-M_alt    "P 1"
_space_group_IT_number       1

loop_
  _space_group_symop_operation_xyz
  'x, y, z'

loop_
  _atom_site_type_symbol
  _atom_site_label
  _atom_site_symmetry_multiplicity
  _atom_site_fract_x
  _atom_site_fract_y
  _atom_site_fract_z
  _atom_site_occupancy
  C   C1        1.0  0.004771044263588586  0.005280343960261628  0.9999213368856517  1.0000
  O   O1        1.0  0.004771044263588586  0.005280343960261628  4.0322722120878005e-05  1.0000
  Re  Re1       1.0  0.006672242841853557  0.0033791413552554874  0.9989820413464376  1.0000
  Re  Re2       1.0  0.006672243010414433  0.008379140998780024  0.9992005514045471  1.0000
  Re  Re3       1.0  0.003338909100222794  0.0017124746136773102  0.9992733879745841  1.0000
  Re  Re4       1.0  0.0033389093586972027  0.006712474838411842  0.999054878040434  1.0000
  Ir  Ir1       1.0  0.003354097350876777  0.004208677584272288  0.9991642989501412  1.0000
  Ir  Ir2       1.0  0.003354097519437654  0.009208677227796823  0.9989457890413913  1.0000
  Ir  Ir3       1.0  0.008331315299887157  0.001720068897221887  0.9992730560893195  1.0000
  Ir  Ir4       1.0  0.008331315468448034  0.0067200685407464225  0.9990545461805695  1.0000
  Ir  Ir5       1.0  0.008331315203673209  0.004208677584272288  0.9991642989501412  1.0000
  Ir  Ir6       1.0  0.008331316043357613  0.009208677227796823  0.9989457890413913  1.0000
  Ir  Ir7       1.0  0.006657054016944379  0.0008829382877921772  0.9990911303751137  1.0000
  Ir  Ir8       1.0  0.006657054566023785  0.005882938221921711  0.9993096404205232  1.0000
  Ir  Ir9       1.0  0.001679836835925859  0.0033715468779742454  0.9989823732401688  1.0000
  Ir  Ir10      1.0  0.0016798376756102648  0.00837154652149878  0.9992008832982784  1.0000
  Ir  Ir11      1.0  0.0016798366674905935  0.0008829382877921772  0.9990911303751137  1.0000
  Ir  Ir12      1.0  0.0016798367132273542  0.005882938221921711  0.9993096404205232  1.0000
  Re  Re5       1.0  0.006672242841853557  0.0033791413552554874  0.9994190613132972  1.0000
  Re  Re6       1.0  0.006774112433543166  0.008277274260145403  0.9996325787977985  1.0000
  Re  Re7       1.0  0.003209435332618361  0.0018419567703258466  0.9996929719468576  1.0000
  Re  Re8       1.0  0.0033670620770343577  0.006684334200298195  0.9994947137864649  1.0000
  Ir  Ir13      1.0  0.003405730668472682  0.004143520456459207  0.9996060821742606  1.0000
  Ir  Ir14      1.0  0.003354097519437654  0.009208677227796823  0.9993828087127454  1.0000
  Ir  Ir15      1.0  0.008236057272105413  0.001815320884891878  0.9996980136096529  1.0000
  Ir  Ir16      1.0  0.008353514646147505  0.006697863994058726  0.9994880936066471  1.0000
  Ir  Ir17      1.0  0.008410014345496333  0.004143512319519262  0.9996060831208717  1.0000
  Ir  Ir18      1.0  0.008331316043357613  0.009208677227796823  0.9993828087127454  1.0000
  Ir  Ir19      1.0  0.0067321411714280875  0.0007913287431672024  0.9995389741253172  1.0000
  Ir  Ir20      1.0  0.0064506217092939605  0.006031084000225565  0.9997324090119559  1.0000
  Ir  Ir21      1.0  0.001679836835925859  0.0033715468779742454  0.9994193932070283  1.0000
  Ir  Ir22      1.0  0.0016905288397502643  0.00836085535735878  0.9996346140257081  1.0000
  Ir  Ir23      1.0  0.0017879884889499048  0.0007913224467255788  0.9995389755825057  1.0000
  Ir  Ir24      1.0  0.0015899862466588728  0.006031085162645558  0.9997324089611559  1.0000
