data_image0
_chemical_formula_structural       CONi20Sb8
_chemical_formula_sum              "C1 O1 Ni20 Sb8"
_cell_length_a       6.213745849287671
_cell_length_b       7.107748196504875
_cell_length_c       104.85948944091797
_cell_angle_alpha    84.64856884653626
_cell_angle_beta     89.87596413110346
_cell_angle_gamma    64.41802114795048

_space_group_name_H-M_alt    "P 1"
_space_group_IT_number       1

loop_
  _space_group_symop_operation_xyz
  'x, y, z'

loop_
  _atom_site_type_symbol
  _atom_site_label
  _atom_site_symmetry_multiplicity
  _atom_site_fract_x
  _atom_site_fract_y
  _atom_site_fract_z
  _atom_site_occupancy
  C   C1        1.0  0.005382847381945618  0.005605666513884258  9.333927896740737e-05  1.0000
  O   O1        1.0  0.005382847381945618  0.005605666513884258  0.0002077783667664793  1.0000
  Ni  Ni1       1.0  0.00035637829208216116  0.009262417410577428  0.9993735601974091  1.0000
  Ni  Ni2       1.0  0.001076387660160955  0.007822398416832783  0.9991342001903151  1.0000
  Ni  Ni3       1.0  0.009038790387272181  0.006351673593591812  0.9993145709718361  1.0000
  Ni  Ni4       1.0  0.0023939760590887655  0.0007331421315921996  0.9991931895676361  1.0000
  Ni  Ni5       1.0  0.005337875806063296  0.0053681144404425256  0.9990647855903226  1.0000
  Ni  Ni6       1.0  0.006094890676346912  0.0017167012117227725  0.9994429752338185  1.0000
  Ni  Ni7       1.0  0.0026140968249639828  0.005338537188185558  0.9994826545848359  1.0000
  Ni  Ni8       1.0  0.00809665036978683  0.0031903169918776086  0.9992651340023826  1.0000
  Ni  Ni9       1.0  0.0033361161126233777  0.0038944986602876897  0.9992426265375467  1.0000
  Ni  Ni10      1.0  0.0073900981254493596  0.004603421287742614  0.9995000203980343  1.0000
  Ni  Ni11      1.0  0.008952368552078451  0.0021281226715792567  0.9998452241049982  1.0000
  Ni  Ni12      1.0  0.009647816394617698  0.0006795409923320303  0.9996091147859565  1.0000
  Ni  Ni13      1.0  0.007541110281306591  0.009276306738227654  0.9997909789462109  1.0000
  Ni  Ni14      1.0  0.0009654047187068616  0.0035902851744112146  0.9996681037249556  1.0000
  Ni  Ni15      1.0  0.003909304274066431  0.0082252572642054  0.9995396997490517  1.0000
  Ni  Ni16      1.0  0.004607318148603687  0.004588273993692305  0.9999007174933597  1.0000
  Ni  Ni17      1.0  0.001205660648148301  0.00813992233799706  0.9999341048117677  1.0000
  Ni  Ni18      1.0  0.006738502072441752  0.006038609655461959  0.9997333268519055  1.0000
  Ni  Ni19      1.0  0.0017835841002670156  0.006763152738232141  0.9997156836279771  1.0000
  Ni  Ni20      1.0  0.005895867009620077  0.00717909770740399  0.9999538589187998  1.0000
  Sb  Sb1       1.0  0.009743522056719805  0.004938193689463397  0.9990766958532334  1.0000
  Sb  Sb2       1.0  0.0016892447975516709  0.0021466218166644735  0.9994310649717834  1.0000
  Sb  Sb3       1.0  0.004595947863810475  0.0067796427003904555  0.9993027147660244  1.0000
  Sb  Sb4       1.0  0.0068368178929018265  0.00030517320734034113  0.9992050457723823  1.0000
  Sb  Sb5       1.0  0.008314949636803357  0.007795337097375982  0.9995516100083833  1.0000
  Sb  Sb6       1.0  0.0002564786523062384  0.004934863451967753  0.999917424766578  1.0000
  Sb  Sb7       1.0  0.0031579036240276352  0.00969482722347007  0.9997776389408027  1.0000
  Sb  Sb8       1.0  0.005408246942405821  0.003162316067612572  0.9996799599308058  1.0000
