data_image0
_chemical_formula_structural       HIr3Sn6
_chemical_formula_sum              "H1 Ir3 Sn6"
_cell_length_a       4.572421073913574
_cell_length_b       4.572421160442107
_cell_length_c       36.39970397949219
_cell_angle_alpha    90.0
_cell_angle_beta     90.0
_cell_angle_gamma    119.99999937399886

_space_group_name_H-M_alt    "P 1"
_space_group_IT_number       1

loop_
  _space_group_symop_operation_xyz
  'x, y, z'

loop_
  _atom_site_type_symbol
  _atom_site_label
  _atom_site_symmetry_multiplicity
  _atom_site_fract_x
  _atom_site_fract_y
  _atom_site_fract_z
  _atom_site_occupancy
  H   H1        1.0  0.004999997726078721  0.00833333026015274  0.0008256035032462918  1.0000
  Ir  Ir1       1.0  0.0050000007934165504  0.00833333120092231  0.9997188381828416  1.0000
  Ir  Ir2       1.0  0.001666666640656806  0.0016666666635307681  0.9976623101550425  1.0000
  Ir  Ir3       1.0  0.008333333243622504  0.0049999997553999125  0.9986879682867175  1.0000
  Sn  Sn1       1.0  0.004999999799201499  0.00833333308246145  0.9989443829219802  1.0000
  Sn  Sn2       1.0  0.0016666718210702192  0.0016666725433405769  0.0  1.0000
  Sn  Sn3       1.0  0.008333333243622504  0.0049999997553999125  0.9979187247903052  1.0000
  Sn  Sn4       1.0  0.001666666640656806  0.0016666666635307681  0.9984315540608306  1.0000
  Sn  Sn5       1.0  0.008333333243622504  0.0049999997553999125  0.9994572121925056  1.0000
  Sn  Sn6       1.0  0.004999997726078721  0.00833333026015274  0.0004871253771760195  1.0000
