data_image0
_chemical_formula_structural       COAl10Mo2
_chemical_formula_sum              "C1 O1 Al10 Mo2"
_cell_length_a       4.9386381859733985
_cell_length_b       4.938638210296631
_cell_length_c       105.64791870117188
_cell_angle_alpha    90.0
_cell_angle_beta     90.0
_cell_angle_gamma    120.00000016292064

_space_group_name_H-M_alt    "P 1"
_space_group_IT_number       1

loop_
  _space_group_symop_operation_xyz
  'x, y, z'

loop_
  _atom_site_type_symbol
  _atom_site_label
  _atom_site_symmetry_multiplicity
  _atom_site_fract_x
  _atom_site_fract_y
  _atom_site_fract_z
  _atom_site_occupancy
  C   C1        1.0  0.0008324758474631779  0.0016593954354747694  0.00014152164754261496  1.0000
  O   O1        1.0  0.0008324758474631779  0.0016593954354747694  0.0002551066993469716  1.0000
  Al  Al1       1.0  0.0025008576818470168  0.0016092174456484188  0.9993501507318044  1.0000
  Al  Al2       1.0  0.009116455130113306  0.004993619904426721  0.9993501507318044  1.0000
  Al  Al3       1.0  0.009102147077202829  0.001674861429366905  0.9997738380894681  1.0000
  Al  Al4       1.0  0.0025008576818470168  0.004993620013986367  0.9995610393917047  1.0000
  Al  Al5       1.0  0.002579665203930212  0.008390782465946975  0.9997738313192851  1.0000
  Al  Al6       1.0  0.005833893652955742  0.0016602321946621796  0.0  1.0000
  Al  Al7       1.0  0.005885260059379073  0.0083780223219149  0.9993501507318044  1.0000
  Al  Al8       1.0  0.0024982494475717125  0.0049923298516815215  0.999990065320711  1.0000
  Al  Al9       1.0  0.009167524087211202  0.008326953216668459  0.9995610393917047  1.0000
  Al  Al10      1.0  0.005818270377552124  0.004914077123093907  0.9997738589641988  1.0000
  Mo  Mo1       1.0  0.009166702726409194  0.008326461447374114  0.9999650867307375  1.0000
  Mo  Mo2       1.0  0.005834191102281177  0.001660286535624625  0.9995610393917047  1.0000
