data_image0
_chemical_formula_structural       HTi6Re3Ti6Re3
_chemical_formula_sum              "H1 Ti12 Re6"
_cell_length_a       7.620411396026611
_cell_length_b       5.2385556753734175
_cell_length_c       101.43133544921875
_cell_angle_alpha    93.32754378919192
_cell_angle_beta     90.0
_cell_angle_gamma    43.33622791924719

_space_group_name_H-M_alt    "P 1"
_space_group_IT_number       1

loop_
  _space_group_symop_operation_xyz
  'x, y, z'

loop_
  _atom_site_type_symbol
  _atom_site_label
  _atom_site_symmetry_multiplicity
  _atom_site_fract_x
  _atom_site_fract_y
  _atom_site_fract_z
  _atom_site_occupancy
  H   H1        1.0  0.0025019371008351754  0.009411010533550075  0.00015419213933853942  1.0000
  Ti  Ti1       1.0  0.004805744639958123  0.008248201499120396  0.9995067213717457  1.0000
  Ti  Ti2       1.0  0.008139077961158855  0.0015815348567189335  0.9993345669605813  1.0000
  Ti  Ti3       1.0  0.0014724116295372692  0.0049148680479275  0.9991624124842783  1.0000
  Ti  Ti4       1.0  0.009480328733606052  0.005565699300609706  0.9994374506228704  1.0000
  Ti  Ti5       1.0  0.0028136625164207276  0.008899032751802602  0.9992652961473467  1.0000
  Ti  Ti6       1.0  0.006146995837621459  0.00223236610940114  0.9990931417361825  1.0000
  Re  Re1       1.0  0.007143036556789923  0.006906950659849381  0.9992138543165918  1.0000
  Re  Re2       1.0  0.000476370470952133  0.0002402838874557536  0.9995581632680288  1.0000
  Re  Re3       1.0  0.0038097037907974937  0.0035736172086564847  0.9993860087921155  1.0000
  Ti  Ti7       1.0  0.004642761034371032  0.008244417167212071  2.471475792010475e-05  1.0000
  Ti  Ti8       1.0  0.008153594855283807  0.0016209566706621337  0.9998515792373428  1.0000
  Ti  Ti9       1.0  0.0014724116295372692  0.0049148680479275  0.9996788758472693  1.0000
  Ti  Ti10      1.0  0.00952362879214284  0.005475931391158596  0.999955766247341  1.0000
  Ti  Ti11      1.0  0.0028008252120428107  0.008947610303905293  0.9997804336949506  1.0000
  Ti  Ti12      1.0  0.006146995837621459  0.00223236610940114  0.9996096050991734  1.0000
  Re  Re4       1.0  0.007143036556789923  0.006906950659849381  0.9997303176795829  1.0000
  Re  Re5       1.0  0.000770057079170139  0.00975971607614644  3.950914301116212e-05  1.0000
  Re  Re6       1.0  0.003769366143295998  0.003586762796337211  0.9998984227951729  1.0000
