data_image0
_chemical_formula_structural       Re6Os2Re6Os2H
_chemical_formula_sum              "Re12 Os4 H1"
_cell_length_a       5.565713405609131
_cell_length_b       5.565713480474915
_cell_length_c       101.07102966308594
_cell_angle_alpha    90.0
_cell_angle_beta     90.0
_cell_angle_gamma    119.99999955503634

_space_group_name_H-M_alt    "P 1"
_space_group_IT_number       1

loop_
  _space_group_symop_operation_xyz
  'x, y, z'

loop_
  _atom_site_type_symbol
  _atom_site_label
  _atom_site_symmetry_multiplicity
  _atom_site_fract_x
  _atom_site_fract_y
  _atom_site_fract_z
  _atom_site_occupancy
  Re  Re1       1.0  0.008344352579489967  0.001655647187725803  0.9995645240085134  1.0000
  Re  Re2       1.0  0.0033112943338111734  0.001655647187725803  0.9995645240085134  1.0000
  Re  Re3       1.0  0.008344352843744051  0.006688705794580653  0.9995645240085134  1.0000
  Re  Re4       1.0  0.0016556469948200622  0.00834435240265103  0.9993449397147532  1.0000
  Re  Re5       1.0  0.006688705407830968  0.00834435240265103  0.9993449397147532  1.0000
  Re  Re6       1.0  0.0016556471877258033  0.003311294375451606  0.9993449397147532  1.0000
  Os  Os1       1.0  0.006666666577052943  0.003333333261198436  0.9993449397147532  1.0000
  Os  Os2       1.0  0.003333333211198436  0.006666666522396872  0.9995645240085134  1.0000
  Re  Re7       1.0  0.008333975434979789  0.0016660193487064588  0.0  1.0000
  Re  Re8       1.0  0.0033320427060322152  0.0016660191554879835  0.0  1.0000
  Re  Re9       1.0  0.008333980565345499  0.006667957221812881  0.9999999994102697  1.0000
  Re  Re10      1.0  0.0016590414210125388  0.008340954076104806  0.9997953293948284  1.0000
  Re  Re11      1.0  0.006681911495781416  0.008340951757483102  0.9997953293948284  1.0000
  Re  Re12      1.0  0.0016590456846165746  0.003318089869233198  0.9997953288050981  1.0000
  Os  Os3       1.0  0.006666669823866735  0.003333341762811356  0.999793814377786  1.0000
  Os  Os4       1.0  0.0033333329111984236  0.006666666522396872  3.4127690245661437e-06  1.0000
  H   H1        1.0  0.006667096234957107  0.00833354762550384  0.00014954792787846114  1.0000
