data_image0
_chemical_formula_structural       COZn4Pt4Zn4Pt4Zn4Pt4Zn4Pt4
_chemical_formula_sum              "C1 O1 Zn16 Pt16"
_cell_length_a       7.708127808158932
_cell_length_b       8.191969871520996
_cell_length_c       102.76788330078125
_cell_angle_alpha    90.0
_cell_angle_beta     74.59188913431467
_cell_angle_gamma    74.59188913431467

_space_group_name_H-M_alt    "P 1"
_space_group_IT_number       1

loop_
  _space_group_symop_operation_xyz
  'x, y, z'

loop_
  _atom_site_type_symbol
  _atom_site_label
  _atom_site_symmetry_multiplicity
  _atom_site_fract_x
  _atom_site_fract_y
  _atom_site_fract_z
  _atom_site_occupancy
  C   C1        1.0  0.0030465176049770844  0.0042380941841093705  0.9999071041794361  1.0000
  O   O1        1.0  0.0030465176049770844  0.0042380941841093705  2.3871834160736987e-05  1.0000
  Zn  Zn1       1.0  0.0012313030632861387  0.0046922520690213035  0.9995842621791339  1.0000
  Zn  Zn2       1.0  0.006085478551096056  0.000977128589956264  0.9996936809834814  1.0000
  Zn  Zn3       1.0  0.006324525031709389  0.003420256708851789  0.9998739627672397  1.0000
  Zn  Zn4       1.0  0.0012512098268197779  0.0021872562422989906  0.9997988868259791  1.0000
  Pt  Pt1       1.0  0.008768696874132837  0.0003077480557637184  0.999819420351212  1.0000
  Pt  Pt2       1.0  0.0037313029172637456  0.0015672522965214915  0.9995344413527609  1.0000
  Pt  Pt3       1.0  0.0037147666634747565  0.004071031919484952  0.9997317736080809  1.0000
  Pt  Pt4       1.0  0.008739963317672836  0.0028149619494432054  0.9996286010992008  1.0000
  Zn  Zn5       1.0  0.0012313030632861387  0.0046922520690213035  0.999185695394072  1.0000
  Zn  Zn6       1.0  0.006231302771241352  0.0009422523330270898  0.9992853369888588  1.0000
  Zn  Zn7       1.0  0.006231302771241352  0.0034422521420324997  0.999484620526388  1.0000
  Zn  Zn8       1.0  0.0012313030632861387  0.0021922522600158934  0.9993849786416047  1.0000
  Pt  Pt5       1.0  0.00873130262521896  0.0003172523695326881  0.9994347997000149  1.0000
  Pt  Pt6       1.0  0.0037313029172637456  0.0015672522965214915  0.999135874567699  1.0000
  Pt  Pt7       1.0  0.0037313029172637456  0.004067252105526902  0.9993351578152317  1.0000
  Pt  Pt8       1.0  0.00873130262521896  0.0028172521785380985  0.9992355161624857  1.0000
  Zn  Zn9       1.0  0.0012313030632861387  0.00969225259653017  0.9995842621791339  1.0000
  Zn  Zn10      1.0  0.006085478551096056  0.005977128890090619  0.9996936809834814  1.0000
  Zn  Zn11      1.0  0.006324525031709389  0.008420256781611632  0.9998739627672397  1.0000
  Zn  Zn12      1.0  0.0012512098268197779  0.007187256315058834  0.9997988868259791  1.0000
  Pt  Pt9       1.0  0.008768696874132837  0.005307748128523562  0.999819420351212  1.0000
  Pt  Pt10      1.0  0.0037313029172637456  0.006567252596655847  0.9995344413527609  1.0000
  Pt  Pt11      1.0  0.0037147666634747565  0.009071031992244795  0.9997317736080809  1.0000
  Pt  Pt12      1.0  0.008739963317672836  0.00781496202220305  0.9996286010992008  1.0000
  Zn  Zn13      1.0  0.0012313030632861387  0.00969225259653017  0.999185695394072  1.0000
  Zn  Zn14      1.0  0.006231302771241352  0.0059422526331614454  0.9992853369888588  1.0000
  Zn  Zn15      1.0  0.006231302771241352  0.008442252669541368  0.999484620526388  1.0000
  Zn  Zn16      1.0  0.0012313030632861387  0.007192252560150249  0.9993849786416047  1.0000
  Pt  Pt13      1.0  0.00873130262521896  0.005317252669667043  0.9994347997000149  1.0000
  Pt  Pt14      1.0  0.0037313029172637456  0.006567252596655847  0.999135874567699  1.0000
  Pt  Pt15      1.0  0.0037313029172637456  0.00906725263303577  0.9993351578152317  1.0000
  Pt  Pt16      1.0  0.00873130262521896  0.007817252706046966  0.9992355161624857  1.0000
