data_image0
_chemical_formula_structural       COAu16In32Na16
_chemical_formula_sum              "C1 O1 Au16 In32 Na16"
_cell_length_a       13.373165791592069
_cell_length_b       14.160558905723631
_cell_length_c       100.97283172607422
_cell_angle_alpha    83.61669486018252
_cell_angle_beta     83.61880996951018
_cell_angle_gamma    75.93054099364294

_space_group_name_H-M_alt    "P 1"
_space_group_IT_number       1

loop_
  _space_group_symop_operation_xyz
  'x, y, z'

loop_
  _atom_site_type_symbol
  _atom_site_label
  _atom_site_symmetry_multiplicity
  _atom_site_fract_x
  _atom_site_fract_y
  _atom_site_fract_z
  _atom_site_occupancy
  C   C1        1.0  0.0006631780654511411  0.004471385384722609  0.9999188516143219  1.0000
  O   O1        1.0  0.0006631780654511411  0.004471385384722609  3.769570449508539e-05  1.0000
  Au  Au1       1.0  0.0002307555605952904  0.008248143251672706  0.9991915708089513  1.0000
  Au  Au2       1.0  0.005230755627011147  0.003962429160423056  0.9989724677363206  1.0000
  Au  Au3       1.0  0.007387839470896946  0.000811358521766971  0.9990669924699909  1.0000
  Au  Au4       1.0  0.002387839561469208  0.0050970725449540006  0.9992860955413718  1.0000
  Au  Au5       1.0  0.002730755546054769  0.001105286546360991  0.9990820192975478  1.0000
  Au  Au6       1.0  0.007730755569315846  0.005391000705673265  0.9993011219545845  1.0000
  Au  Au7       1.0  0.009887839237877085  0.003668501271954279  0.9989574409112629  1.0000
  Au  Au8       1.0  0.0048878392442617425  0.007954215635454419  0.999176543978577  1.0000
  Au  Au9       1.0  0.00011216055916641571  0.006867004003171174  0.9996279634710277  1.0000
  Au  Au10      1.0  0.005230755258570834  0.002533857887423334  0.9994106735223779  1.0000
  Au  Au11      1.0  0.007387839949219085  0.009382786363953165  0.9995051984935013  1.0000
  Au  Au12      1.0  0.0024996350379442303  0.003903253611130471  0.9997065645265487  1.0000
  Au  Au13      1.0  0.0027307557104006702  0.009676714524672428  0.9995202250284057  1.0000
  Au  Au14      1.0  0.007605175809480498  0.003995678023505018  0.9997149944139548  1.0000
  Au  Au15      1.0  0.009887839430039165  0.0022399299989545583  0.9993956469842201  1.0000
  Au  Au16      1.0  0.004872900419648229  0.006679354265402844  0.9996155384162037  1.0000
  In  In1       1.0  0.006024326149998278  0.0006192286299702049  0.9993127902523731  1.0000
  In  In2       1.0  0.0010243263287096568  0.006333513926156956  0.9990936872466709  1.0000
  In  In3       1.0  0.0015942686532042431  0.007011701870469752  0.9993839788105633  1.0000
  In  In4       1.0  0.006594268579469502  0.0027259877792201004  0.9991648760351476  1.0000
  In  In5       1.0  0.009621573959151272  0.00013115494544372475  0.9990322176993203  1.0000
  In  In6       1.0  0.004621574009734421  0.004416869130279481  0.9992513207687694  1.0000
  In  In7       1.0  0.007997021431795643  0.008928346938597714  0.9992263457496973  1.0000
  In  In8       1.0  0.0029970210440457656  0.00464263311959855  0.999007242502416  1.0000
  In  In9       1.0  0.008524326477580809  0.0034763713801575133  0.9992032386853931  1.0000
  In  In10      1.0  0.0035243262918033874  0.009190657016657375  0.9989841356797501  1.0000
  In  In11      1.0  0.004094268335996778  0.00986884496097017  0.9992744272477685  1.0000
  In  In12      1.0  0.009094268329612121  0.00558313059747003  0.9990553244756063  1.0000
  In  In13      1.0  0.00212157369898941  0.001559726312029551  0.9993608723365629  1.0000
  In  In14      1.0  0.007121573759877041  0.007274011948529412  0.9991417692092281  1.0000
  In  In15      1.0  0.0004970211874275909  0.001785490165223376  0.9991167940656471  1.0000
  In  In16      1.0  0.005497021053700547  0.006071204392598272  0.9993358967239334  1.0000
  In  In17      1.0  0.006023296378161935  0.009272730737733482  0.9997504938267597  1.0000
  In  In18      1.0  0.000980709578931461  0.004950756965256482  0.9995275227342236  1.0000
  In  In19      1.0  0.0015473968783725556  0.005726740007318093  0.9998043489179158  1.0000
  In  In20      1.0  0.006516341765480652  0.001343636199296069  0.9996188174847285  1.0000
  In  In21      1.0  0.009621573769531823  0.008702583221529133  0.9994704237258974  1.0000
  In  In22      1.0  0.004606140240600689  0.0029731329606042653  0.9997065945460349  1.0000
  In  In23      1.0  0.007957148644835326  0.007584917105171452  0.999679927415525  1.0000
  In  In24      1.0  0.002997021023256733  0.0032140615743483413  0.9994454482876007  1.0000
  In  In25      1.0  0.008553490468677706  0.0020550352999982578  0.9996561313109172  1.0000
  In  In26      1.0  0.0035243264839654666  0.007762085743657653  0.9994223414575553  1.0000
  In  In27      1.0  0.004057068130805636  0.008513057133398384  0.9997194712153673  1.0000
  In  In28      1.0  0.0090942685217742  0.0041545593244703095  0.9994935305485634  1.0000
  In  In29      1.0  0.0020185885479345445  0.0002071068505573512  0.9997955719723229  1.0000
  In  In30      1.0  0.007097017955576993  0.0059605509043072205  0.9995814362168779  1.0000
  In  In31      1.0  0.0004687140663320165  0.0004080280339049868  0.999565569184177  1.0000
  In  In32      1.0  0.005441976034353913  0.004847209214698913  0.9997645431700486  1.0000
  Na  Na1       1.0  0.009160581689030337  0.0066165656798856986  0.9993637778807999  1.0000
  Na  Na2       1.0  0.004160581368630545  0.0023308515886360467  0.999144674931924  1.0000
  Na  Na3       1.0  0.008458013394512277  0.0010143646844290146  0.9993329910620715  1.0000
  Na  Na4       1.0  0.003458013259247417  0.006728650116741009  0.9991138880588687  1.0000
  Na  Na5       1.0  0.001660581820460381  0.009473708225885141  0.9992542264379517  1.0000
  Na  Na6       1.0  0.006660581679375556  0.005187994406885977  0.9990351236592825  1.0000
  Na  Na7       1.0  0.0009580133016041168  0.0038715075707415666  0.9992234396172195  1.0000
  Na  Na8       1.0  0.005958013637342512  0.009585792662740452  0.9990043364943287  1.0000
  Na  Na9       1.0  0.009060629469275121  0.005260539360886535  0.9997846047023725  1.0000
  Na  Na10      1.0  0.004112394855281732  0.0009627367354117298  0.9995849044163988  1.0000
  Na  Na11      1.0  0.008517484080235366  0.0096940351007109  0.9997589857471247  1.0000
  Na  Na12      1.0  0.0035272302982967676  0.005384796661555617  0.9995431689096144  1.0000
  Na  Na13      1.0  0.0016726945927672378  0.008045479443999163  0.9996876439126788  1.0000
  Na  Na14      1.0  0.006660581310935243  0.003759423133886256  0.9994733294453398  1.0000
  Na  Na15      1.0  0.0010069716650011591  0.0025500652312168944  0.9996690790997946  1.0000
  Na  Na16      1.0  0.005958013134202032  0.008157221934241706  0.999442542569031  1.0000
