data_image0
_chemical_formula_structural       HCu16Pd4Cu16Pd4
_chemical_formula_sum              "H1 Cu32 Pd8"
_cell_length_a       5.9905476570129395
_cell_length_b       7.335371017456055
_cell_length_c       34.05671691894531
_cell_angle_alpha    90.0
_cell_angle_beta     90.0
_cell_angle_gamma    90.0

_space_group_name_H-M_alt    "P 1"
_space_group_IT_number       1

loop_
  _space_group_symop_operation_xyz
  'x, y, z'

loop_
  _atom_site_type_symbol
  _atom_site_label
  _atom_site_symmetry_multiplicity
  _atom_site_fract_x
  _atom_site_fract_y
  _atom_site_fract_z
  _atom_site_occupancy
  H   H1        1.0  0.0009449286442410781  0.006228697394228111  0.0001236495568767275  1.0000
  Cu  Cu1       1.0  0.00048377835166822826  9.25000032774473e-09  0.9986308945015515  1.0000
  Cu  Cu2       1.0  0.00048377835166822826  0.005000009486694349  0.9986308945015515  1.0000
  Cu  Cu3       1.0  0.005437747535657831  0.002505957288553731  0.9995149077571382  1.0000
  Cu  Cu4       1.0  0.005437757485440086  0.007494047718877012  0.9995149195707066  1.0000
  Cu  Cu5       1.0  0.006602348405316559  2.8250000163196384e-08  0.0  1.0000
  Cu  Cu6       1.0  0.002417860051427241  0.005000024214431827  0.9996892033940413  1.0000
  Cu  Cu7       1.0  0.008538993922991392  0.0050000272615499265  0.9993275139357403  1.0000
  Cu  Cu8       1.0  0.0044444296800731095  9.25000032774473e-09  0.9989690692708723  1.0000
  Cu  Cu9       1.0  0.003455561553671235  0.0024924831862460986  0.9984607021107132  1.0000
  Cu  Cu10      1.0  0.001451334938405674  0.0074924835315861495  0.9991536287109516  1.0000
  Cu  Cu11      1.0  0.009471996820407783  0.007457370574024395  0.9998345671645779  1.0000
  Cu  Cu12      1.0  0.007511994810750764  0.0024924831862460986  0.9988010868923899  1.0000
  Cu  Cu13      1.0  0.007511994810750764  0.007507535787142598  0.9988010868923899  1.0000
  Cu  Cu14      1.0  0.009472012366942558  0.0025426377344509544  0.9998345387245059  1.0000
  Cu  Cu15      1.0  0.001451334938405674  0.0025075354418025468  0.9991536287109516  1.0000
  Cu  Cu16      1.0  0.003455561553671235  0.007507535787142598  0.9984607021107132  1.0000
  Pd  Pd1       1.0  0.002531252433965484  0.009999991549325805  0.999701156537488  1.0000
  Pd  Pd2       1.0  0.004460895325982328  0.005000009486694349  0.9989960352719617  1.0000
  Pd  Pd3       1.0  0.006552629343388398  0.004999972413424143  1.897609104586546e-05  1.0000
  Pd  Pd4       1.0  0.008421493213173927  0.009999975298029276  0.9993214632010602  1.0000
  Cu  Cu17      1.0  0.00048377835166822826  9.25000032774473e-09  0.9968719029636788  1.0000
  Cu  Cu18      1.0  0.00048377835166822826  0.005000009486694349  0.9968719029636788  1.0000
  Cu  Cu19      1.0  0.005483778337676348  0.0025000093140243227  0.997751398842  1.0000
  Cu  Cu20      1.0  0.005483778337676348  0.007500009405437866  0.997751398842  1.0000
  Cu  Cu21      1.0  0.006523126373418194  9.25000032774473e-09  0.9982927197322308  1.0000
  Cu  Cu22      1.0  0.0024063279428630175  0.005000009486694349  0.9979342190622983  1.0000
  Cu  Cu23      1.0  0.00856122857702433  0.005000009486694349  0.9975685781841623  1.0000
  Cu  Cu24      1.0  0.0044444296800731095  9.25000032774473e-09  0.9972100779517693  1.0000
  Cu  Cu25      1.0  0.003455561553671235  0.0024924831862460986  0.9967017105728405  1.0000
  Cu  Cu26      1.0  0.001451334938405674  0.0074924835315861495  0.9973946369543091  1.0000
  Cu  Cu27      1.0  0.00951622111508563  0.0074924835315861495  0.9981081602921515  1.0000
  Cu  Cu28      1.0  0.007511994810750764  0.0024924831862460986  0.9970420953545172  1.0000
  Cu  Cu29      1.0  0.007511994810750764  0.007507535787142598  0.9970420953545172  1.0000
  Cu  Cu30      1.0  0.00951622111508563  0.0025075354418025468  0.9981081602921515  1.0000
  Cu  Cu31      1.0  0.001451334938405674  0.0025075354418025468  0.9973946369543091  1.0000
  Cu  Cu32      1.0  0.003455561553671235  0.007507535787142598  0.9967017105728405  1.0000
  Pd  Pd5       1.0  0.0025596312340062225  9.25000032774473e-09  0.9979313229879004  1.0000
  Pd  Pd6       1.0  0.004460895325982328  0.005000009486694349  0.9972370439528587  1.0000
  Pd  Pd7       1.0  0.006506660727508975  0.005000009486694349  0.9982657537311415  1.0000
  Pd  Pd8       1.0  0.008407924819485081  9.25000032774473e-09  0.9975714746960997  1.0000
