data_image0
_chemical_formula_structural       COZn16Cu8Au8
_chemical_formula_sum              "C1 O1 Zn16 Cu8 Au8"
_cell_length_a       6.578917380091547
_cell_length_b       10.701432890623872
_cell_length_c       104.61705017089844
_cell_angle_alpha    96.09859297457707
_cell_angle_beta     88.15924389306812
_cell_angle_gamma    53.92860618475296

_space_group_name_H-M_alt    "P 1"
_space_group_IT_number       1

loop_
  _space_group_symop_operation_xyz
  'x, y, z'

loop_
  _atom_site_type_symbol
  _atom_site_label
  _atom_site_symmetry_multiplicity
  _atom_site_fract_x
  _atom_site_fract_y
  _atom_site_fract_z
  _atom_site_occupancy
  C   C1        1.0  0.003799645831089592  0.0015303292319259782  0.00016885616092239455  1.0000
  O   O1        1.0  0.003799645831089592  0.0015303292319259782  0.00028356044955500545  1.0000
  Zn  Zn1       1.0  0.009238661844615673  0.008607335624433136  1.8929364406895936e-05  1.0000
  Zn  Zn2       1.0  0.006753588472778483  0.006062825216581807  0.9993947317205145  1.0000
  Zn  Zn3       1.0  0.0017182206765718753  0.0010755396448328442  0.9998114608214845  1.0000
  Zn  Zn4       1.0  0.004253588877013861  0.0035628254083965006  0.9996015400486407  1.0000
  Zn  Zn5       1.0  0.0017576892060949514  0.006052308976001374  0.9998120478982635  1.0000
  Zn  Zn6       1.0  0.00928252025415707  0.003645763248313063  2.086933968214308e-05  1.0000
  Zn  Zn7       1.0  0.004249772584776937  0.008566641265286166  0.9996018555629521  1.0000
  Zn  Zn8       1.0  0.006749773270326515  0.0010666408598596548  0.9993950475493583  1.0000
  Zn  Zn9       1.0  0.008221294742320638  0.008906923147510884  0.9995730749392169  1.0000
  Zn  Zn10      1.0  0.005720668391478162  0.006407303045230547  0.9997782563512397  1.0000
  Zn  Zn11      1.0  0.0007212946757851473  0.0014069232870124796  0.9993662670199498  1.0000
  Zn  Zn12      1.0  0.0031881172729445687  0.003968830415694667  4.079506126163188e-06  1.0000
  Zn  Zn13      1.0  0.0057295579557811276  0.001424666146176914  0.9997780245812281  1.0000
  Zn  Zn14      1.0  0.0031853074696913245  0.008943404558476893  0.9999985310538797  1.0000
  Zn  Zn15      1.0  0.00821747886823572  0.0039107388997743535  0.9995733907706017  1.0000
  Zn  Zn16      1.0  0.0007174789500872834  0.006410739143902146  0.9993665825331167  1.0000
  Cu  Cu1       1.0  0.0007651466849056956  0.008879055960060582  0.9997743220442193  1.0000
  Cu  Cu2       1.0  0.008218543898400392  0.0063967885484200555  0.9999810524946692  1.0000
  Cu  Cu3       1.0  0.003255717849233501  0.0013967208160360655  0.9995742346320962  1.0000
  Cu  Cu4       1.0  0.005755718189712824  0.0038967207332069936  0.9993674265885207  1.0000
  Cu  Cu5       1.0  0.0092153502843795  0.006076843383149167  0.9996006959003068  1.0000
  Cu  Cu6       1.0  0.006773399504938762  0.0035452761076956783  0.9998128541341695  1.0000
  Cu  Cu7       1.0  0.001715350786606619  0.008576843191334473  0.9993938879421057  1.0000
  Cu  Cu8       1.0  0.004186023627485401  0.0012163289053457682  1.1857532887279682e-06  1.0000
  Au  Au1       1.0  0.006742222499105855  0.008567580285400176  0.9998150433325417  1.0000
  Au  Au2       1.0  0.004301377577613228  0.0060795845894987  1.3381169464009384e-05  1.0000
  Au  Au3       1.0  0.009276092567764219  0.0010565956551349255  0.999602371201106  1.0000
  Au  Au4       1.0  0.0017760927547096708  0.003556595790277096  0.9993955626773537  1.0000
  Au  Au5       1.0  0.003194974505852412  0.00641696876202155  0.9995725596206775  1.0000
  Au  Au6       1.0  0.0007219493731262747  0.003913558575771296  0.9997717535355302  1.0000
  Au  Au7       1.0  0.0056949742477805385  0.008916969006149342  0.9993657515818642  1.0000
  Au  Au8       1.0  0.008242900633272892  0.001392052634914504  0.9999875964509581  1.0000
