data_image0
_chemical_formula_structural       HCo8Ge8Co8Ge8
_chemical_formula_sum              "H1 Co16 Ge16"
_cell_length_a       7.576524257659912
_cell_length_b       4.967982987614057
_cell_length_c       105.46308898925781
_cell_angle_alpha    99.6403299438921
_cell_angle_beta     90.0
_cell_angle_gamma    90.0

_space_group_name_H-M_alt    "P 1"
_space_group_IT_number       1

loop_
  _space_group_symop_operation_xyz
  'x, y, z'

loop_
  _atom_site_type_symbol
  _atom_site_label
  _atom_site_symmetry_multiplicity
  _atom_site_fract_x
  _atom_site_fract_y
  _atom_site_fract_z
  _atom_site_occupancy
  H   H1        1.0  0.004999979978441857  0.0015562399908002618  8.55616102071367e-05  1.0000
  Co  Co1       1.0  0.009999980607803213  0.0009640304641109448  0.9999663857859664  1.0000
  Co  Co2       1.0  0.002500014081960345  0.005905240737758736  0.9994138588969684  1.0000
  Co  Co3       1.0  0.002500014081960345  0.004165731939228279  0.9996346282473966  1.0000
  Co  Co4       1.0  1.4050000025759968e-08  0.007644749536289192  0.9997535240873698  1.0000
  Co  Co5       1.0  0.002500014081960345  0.0009052407910007781  0.9994138587871801  1.0000
  Co  Co6       1.0  0.009999986508065927  0.005898763082695516  0.9999716329454312  1.0000
  Co  Co7       1.0  1.4050000025759968e-08  0.004165731939228279  0.9990741939891522  1.0000
  Co  Co8       1.0  0.002500014081960345  0.007644749536289192  0.9991930892639549  1.0000
  Ge  Ge1       1.0  0.002500014081960345  0.009094759292665289  0.9996191581528928  1.0000
  Ge  Ge2       1.0  1.4550000497256166e-08  0.002746803746326725  0.9997671329795994  1.0000
  Ge  Ge3       1.0  0.00250005071275803  0.008152902998328966  0.9999040170126191  1.0000
  Ge  Ge4       1.0  1.4050000025759968e-08  0.0037278632974112416  0.9994923766545526  1.0000
  Ge  Ge5       1.0  1.4050000025759968e-08  0.009094759292665289  0.9990587238946484  1.0000
  Ge  Ge6       1.0  0.002500014081960345  0.002715722373002334  0.9992085593599587  1.0000
  Ge  Ge7       1.0  1.4050000025759968e-08  0.00808261817810623  0.9993353408567989  1.0000
  Ge  Ge8       1.0  0.002500051204446589  0.0035923010710570856  2.8338086970288568e-05  1.0000
  Co  Co9       1.0  0.004999979978441857  0.0009640304641109448  0.9999663857859664  1.0000
  Co  Co10      1.0  0.007500014219633142  0.005905240737758736  0.9994138588969684  1.0000
  Co  Co11      1.0  0.007500014219633142  0.004165731939228279  0.9996346282473966  1.0000
  Co  Co12      1.0  0.0050000143966410235  0.007644749536289192  0.9997535240873698  1.0000
  Co  Co13      1.0  0.007500014219633142  0.0009052407910007781  0.9994138587871801  1.0000
  Co  Co14      1.0  0.004999985878704571  0.005898763082695516  0.9999716329454312  1.0000
  Co  Co15      1.0  0.0050000143966410235  0.004165731939228279  0.9990741939891522  1.0000
  Co  Co16      1.0  0.007500014219633142  0.007644749536289192  0.9991930892639549  1.0000
  Ge  Ge9       1.0  0.007500014219633142  0.009094759292665289  0.9996191581528928  1.0000
  Ge  Ge10      1.0  0.005000014888329583  0.002746803746326725  0.9997671329795994  1.0000
  Ge  Ge11      1.0  0.007500051096275107  0.008152902998328966  0.9999040170126191  1.0000
  Ge  Ge12      1.0  0.0050000143966410235  0.0037278632974112416  0.9994923766545526  1.0000
  Ge  Ge13      1.0  0.0050000143966410235  0.009094759292665289  0.9990587238946484  1.0000
  Ge  Ge14      1.0  0.007500014219633142  0.002715722373002334  0.9992085593599587  1.0000
  Ge  Ge15      1.0  0.0050000143966410235  0.00808261817810623  0.9993353408567989  1.0000
  Ge  Ge16      1.0  0.007500051587963666  0.0035923010710570856  2.8338086970288568e-05  1.0000
