data_image0
_chemical_formula_structural       COCa2Ge4Ca2Ge4Ca2Ge4Ca2Ge4
_chemical_formula_sum              "C1 O1 Ca8 Ge16"
_cell_length_a       8.197632646819383
_cell_length_b       8.197632789611816
_cell_length_c       100.93609619140625
_cell_angle_alpha    90.0
_cell_angle_beta     90.0
_cell_angle_gamma    120.0000005762073

_space_group_name_H-M_alt    "P 1"
_space_group_IT_number       1

loop_
  _space_group_symop_operation_xyz
  'x, y, z'

loop_
  _atom_site_type_symbol
  _atom_site_label
  _atom_site_symmetry_multiplicity
  _atom_site_fract_x
  _atom_site_fract_y
  _atom_site_fract_z
  _atom_site_occupancy
  C   C1        1.0  0.00249986537367633  0.004166261959840656  0.00017159880735268063  1.0000
  O   O1        1.0  0.00249986537367633  0.004166261959840656  0.0002904861506469892  1.0000
  Ca  Ca1       1.0  0.0008331987279991118  0.000832928717664238  0.0  1.0000
  Ca  Ca2       1.0  0.0041668012090325425  0.002499731832724846  0.9994907742353946  1.0000
  Ge  Ge1       1.0  0.0008334678520860792  0.0008330651542516145  0.9996811317526608  1.0000
  Ge  Ge2       1.0  0.0041668012090325425  0.002499731832724846  0.9991703118830262  1.0000
  Ge  Ge3       1.0  0.0025001345633553244  0.0041663983724196845  0.9992793449467592  1.0000
  Ge  Ge4       1.0  0.0025014878580573254  0.004167071157074179  0.999792198857799  1.0000
  Ca  Ca3       1.0  0.0008331987279991118  0.005832928755155116  0.0  1.0000
  Ca  Ca4       1.0  0.0041668012090325425  0.007499731813411363  0.9994907742353946  1.0000
  Ge  Ge5       1.0  0.0008334678520860792  0.005833065134938132  0.9996811317526608  1.0000
  Ge  Ge6       1.0  0.0041668012090325425  0.007499731813411363  0.9991703118830262  1.0000
  Ge  Ge7       1.0  0.0025001345633553244  0.009166398381508381  0.9992793449467592  1.0000
  Ge  Ge8       1.0  0.0025014878580573254  0.009167071393380318  0.999792198857799  1.0000
  Ca  Ca5       1.0  0.005833198665030766  0.0008329288236466172  0.0  1.0000
  Ca  Ca6       1.0  0.009166801670800412  0.002499732144270973  0.9994907742353946  1.0000
  Ge  Ge9       1.0  0.005833467854709761  0.0008330652362256468  0.9996811317526608  1.0000
  Ge  Ge10      1.0  0.009166801670800412  0.002499732144270973  0.9991703118830262  1.0000
  Ge  Ge11      1.0  0.007500134500386979  0.004166398421597703  0.9992793449467592  1.0000
  Ge  Ge12      1.0  0.007501487795088979  0.004167071263056558  0.999792198857799  1.0000
  Ca  Ca7       1.0  0.005833198665030766  0.005832928605517873  0.0  1.0000
  Ca  Ca8       1.0  0.009166801670800412  0.007499731926142229  0.9994907742353946  1.0000
  Ge  Ge13      1.0  0.005833467854709761  0.005833065018096903  0.9996811317526608  1.0000
  Ge  Ge14      1.0  0.009166801670800412  0.007499731926142229  0.9991703118830262  1.0000
  Ge  Ge15      1.0  0.007500134500386979  0.00916639845908858  0.9992793449467592  1.0000
  Ge  Ge16      1.0  0.007501487795088979  0.009167071016525634  0.999792198857799  1.0000
