data_image0
_chemical_formula_structural       HV4Ir4V4Ir4V4Ir4
_chemical_formula_sum              "H1 V12 Ir12"
_cell_length_a       7.343056161814056
_cell_length_b       5.820019245147705
_cell_length_c       101.07386779785156
_cell_angle_alpha    90.0
_cell_angle_beta     112.62531652194978
_cell_angle_gamma    90.0

_space_group_name_H-M_alt    "P 1"
_space_group_IT_number       1

loop_
  _space_group_symop_operation_xyz
  'x, y, z'

loop_
  _atom_site_type_symbol
  _atom_site_label
  _atom_site_symmetry_multiplicity
  _atom_site_fract_x
  _atom_site_fract_y
  _atom_site_fract_z
  _atom_site_occupancy
  H   H1        1.0  0.0020651412839768984  0.0010212165494360517  0.00016642612575801336  1.0000
  V   V1        1.0  0.001082061182859641  0.003978783146524938  0.9998904984878225  1.0000
  V   V2        1.0  0.001082061182859641  0.008063649664310208  0.9998904984878225  1.0000
  V   V3        1.0  0.006082061273546956  0.008978783402557788  3.02426868949752e-05  1.0000
  V   V4        1.0  0.006082061273546956  0.003063649728318421  3.02426868949752e-05  1.0000
  Ir  Ir1       1.0  0.003917939045232696  0.006021216725458636  0.00010950184879203941  1.0000
  Ir  Ir2       1.0  0.00824618377667126  0.006021216725458636  0.9999509829429648  1.0000
  Ir  Ir3       1.0  0.008917939342027543  0.0010212165494360517  0.9999697577313149  1.0000
  Ir  Ir4       1.0  0.003246183479876412  0.0010212165494360517  9.072706044193482e-05  1.0000
  V   V5        1.0  0.001082061182859641  0.003978783146524938  0.9996110098706557  1.0000
  V   V6        1.0  0.001082061182859641  0.008063649664310208  0.9996110098706557  1.0000
  V   V7        1.0  0.006082061273546956  0.008978783402557788  0.9997507540697281  1.0000
  V   V8        1.0  0.006082061273546956  0.003063649728318421  0.9997507540697281  1.0000
  Ir  Ir5       1.0  0.003917939045232696  0.006021216725458636  0.999830013526482  1.0000
  Ir  Ir6       1.0  0.00824618377667126  0.006021216725458636  0.9996714946206549  1.0000
  Ir  Ir7       1.0  0.008917939342027543  0.0010212165494360517  0.999690269409005  1.0000
  Ir  Ir8       1.0  0.003246183479876412  0.0010212165494360517  0.9998112387381319  1.0000
  V   V9        1.0  0.001082061182859641  0.003978783146524938  0.9993315215483457  1.0000
  V   V10       1.0  0.001082061182859641  0.008063649664310208  0.9993315215483457  1.0000
  V   V11       1.0  0.006082061273546956  0.008978783402557788  0.9994712657474182  1.0000
  V   V12       1.0  0.006082061273546956  0.003063649728318421  0.9994712657474182  1.0000
  Ir  Ir9       1.0  0.003917939045232696  0.006021216725458636  0.9995505252041721  1.0000
  Ir  Ir10      1.0  0.00824618377667126  0.006021216725458636  0.9993920062983448  1.0000
  Ir  Ir11      1.0  0.008917939342027543  0.0010212165494360517  0.9994107810866949  1.0000
  Ir  Ir12      1.0  0.003246183479876412  0.0010212165494360517  0.999531750415822  1.0000
