data_image0
_chemical_formula_structural       COV3Si6V3Si6
_chemical_formula_sum              "C1 O1 V6 Si12"
_cell_length_a       4.582751862097735
_cell_length_b       6.397009372711182
_cell_length_c       106.66201782226562
_cell_angle_alpha    90.0
_cell_angle_beta     119.99999919767241
_cell_angle_gamma    90.0

_space_group_name_H-M_alt    "P 1"
_space_group_IT_number       1

loop_
  _space_group_symop_operation_xyz
  'x, y, z'

loop_
  _atom_site_type_symbol
  _atom_site_label
  _atom_site_symmetry_multiplicity
  _atom_site_fract_x
  _atom_site_fract_y
  _atom_site_fract_z
  _atom_site_occupancy
  C   C1        1.0  0.005554885767037994  0.005771439322318265  0.00020490062068124907  1.0000
  O   O1        1.0  0.005554885767037994  0.005771439322318265  0.00031740575197073106  1.0000
  V   V1        1.0  0.005814209095546222  0.003425666708701375  0.9994961212233616  1.0000
  V   V2        1.0  0.005814209095546222  0.006759000278856526  0.9992812954170044  1.0000
  V   V3        1.0  0.0008142093395949171  9.233340242299281e-05  0.9992812953998944  1.0000
  Si  Si1       1.0  0.007557371962442273  9.233340242299281e-05  0.9994261559648251  1.0000
  Si  Si2       1.0  0.009185790172307692  0.006759000278856526  0.9995660865550303  1.0000
  Si  Si3       1.0  0.009185790172307692  0.003425666708701375  0.999356190640184  1.0000
  Si  Si4       1.0  0.004071046697974585  9.233340242299281e-05  0.9995660864919803  1.0000
  Si  Si5       1.0  0.002442628018784751  0.006759000278856526  0.9994261558916929  1.0000
  Si  Si6       1.0  0.002442628018784751  0.003425666708701375  0.9996360518065391  1.0000
  V   V4        1.0  0.005765722251528091  0.0034255878004481534  0.999921588980273  1.0000
  V   V5        1.0  0.005814209095546222  0.006759000278856526  0.9997109470297189  1.0000
  V   V6        1.0  0.0008142093395949171  9.233340242299281e-05  0.9997109467331999  1.0000
  Si  Si7       1.0  0.007595781003285542  0.00011034390184801429  0.9998567475401068  1.0000
  Si  Si8       1.0  0.008940967090941946  0.00694418601101815  2.066383031177117e-06  1.0000
  Si  Si9       1.0  0.00915880589571188  0.0034253231229493405  0.9997834871964127  1.0000
  Si  Si10      1.0  0.0044633230628631  0.009907666698396132  2.0676921022388977e-06  1.0000
  Si  Si11      1.0  0.0024259078671567706  0.006740525847674269  0.9998566877704285  1.0000
  Si  Si12      1.0  0.00223643854999511  0.003425945071395396  4.804448148520702e-05  1.0000
