data_image0
_chemical_formula_structural       COAl12Mn2
_chemical_formula_sum              "C1 O1 Al12 Mn2"
_cell_length_a       4.992786367877088
_cell_length_b       4.992786407470703
_cell_length_c       105.47881317138672
_cell_angle_alpha    90.0
_cell_angle_beta     90.0
_cell_angle_gamma    98.81538963243972

_space_group_name_H-M_alt    "P 1"
_space_group_IT_number       1

loop_
  _space_group_symop_operation_xyz
  'x, y, z'

loop_
  _atom_site_type_symbol
  _atom_site_label
  _atom_site_symmetry_multiplicity
  _atom_site_fract_x
  _atom_site_fract_y
  _atom_site_fract_z
  _atom_site_occupancy
  C   C1        1.0  0.0005514642924191633  0.005200526835076411  0.00012933076354332222  1.0000
  O   O1        1.0  0.0005514642924191633  0.005200526835076411  0.00024309791694499057  1.0000
  Al  Al1       1.0  0.006038011098928234  0.0075022296089202484  0.9997171030465916  1.0000
  Al  Al2       1.0  0.003961988825566387  0.008127866597673701  0.999296653604792  1.0000
  Al  Al3       1.0  0.0029683669234614658  0.0044528756985673604  0.9999302446023126  1.0000
  Al  Al4       1.0  0.006733363537498266  0.0010816839719438173  0.9995068781844202  1.0000
  Al  Al5       1.0  0.006636983941878496  0.0007826696560946893  0.9999302112622139  1.0000
  Al  Al6       1.0  0.0032666360094694615  0.004548411931268767  0.9995068781844202  1.0000
  Al  Al7       1.0  0.008134561397108034  0.005948178050467452  0.0  1.0000
  Al  Al8       1.0  0.00140228211684705  0.00921733013184471  0.9995913238511892  1.0000
  Al  Al9       1.0  0.008597717430120678  0.006412765643825507  0.9994224328001944  1.0000
  Al  Al10      1.0  0.0013664429225848788  0.009181981903145356  0.9998441740295468  1.0000
  Al  Al11      1.0  0.00031281859494517464  0.0017770370233261626  0.999296653604792  1.0000
  Al  Al12      1.0  0.009687181518312892  0.003853058995817014  0.9997171030465916  1.0000
  Mn  Mn1       1.0  0.004568586201651792  0.0023836341283865487  0.9997171030465916  1.0000
  Mn  Mn2       1.0  0.005431413722842829  0.0032464618618283907  0.999296653604792  1.0000
