data_image0
_chemical_formula_structural       COSn12
_chemical_formula_sum              "C1 O1 Sn12"
_cell_length_a       6.726639747619629
_cell_length_b       8.238417802901605
_cell_length_c       106.22406768798828
_cell_angle_alpha    94.34775317992057
_cell_angle_beta     90.0
_cell_angle_gamma    114.09484171139543

_space_group_name_H-M_alt    "P 1"
_space_group_IT_number       1

loop_
  _space_group_symop_operation_xyz
  'x, y, z'

loop_
  _atom_site_type_symbol
  _atom_site_label
  _atom_site_symmetry_multiplicity
  _atom_site_fract_x
  _atom_site_fract_y
  _atom_site_fract_z
  _atom_site_occupancy
  C   C1        1.0  0.004798306592173952  0.005013279640566208  0.00012891350025535085  1.0000
  O   O1        1.0  0.004798306592173952  0.005013279640566208  0.00024188191669085926  1.0000
  Sn  Sn1       1.0  0.006562499846341663  0.003541666447959829  0.9997268444804436  1.0000
  Sn  Sn2       1.0  0.0023958333631007  0.005208333333333333  0.9994426650325425  1.0000
  Sn  Sn3       1.0  0.0007291666122052428  0.0018749999353820707  1.1024211097317413e-05  1.0000
  Sn  Sn4       1.0  0.004687500015753202  0.004791666487724709  0.9999399792190704  1.0000
  Sn  Sn5       1.0  0.0005208330936090469  0.006458332876037219  0.9996558000488078  1.0000
  Sn  Sn6       1.0  0.006354166514143339  0.008124999761410722  0.999371620039785  1.0000
  Sn  Sn7       1.0  0.009479166522949549  0.009374999801175602  0.9995847550589728  1.0000
  Sn  Sn8       1.0  0.00531249989977572  0.001041666554827943  0.9993005752848467  1.0000
  Sn  Sn9       1.0  0.0036458331543350827  0.007708332915802098  0.9998689347874347  1.0000
  Sn  Sn10      1.0  0.009270833534975483  0.003958333293568454  0.9992295302939157  1.0000
  Sn  Sn11      1.0  0.007604166867066166  0.0006249999577498155  0.9997978894728358  1.0000
  Sn  Sn12      1.0  0.0034375001002535707  0.0022916666567254465  0.9995137097432779  1.0000
