data_image0
_chemical_formula_structural       COIn16Ag8In16Ag8
_chemical_formula_sum              "C1 O1 In32 Ag16"
_cell_length_a       15.235380309720332
_cell_length_b       7.017972469329834
_cell_length_c       105.55174255371094
_cell_angle_alpha    90.0
_cell_angle_beta     112.88709488489535
_cell_angle_gamma    90.0

_space_group_name_H-M_alt    "P 1"
_space_group_IT_number       1

loop_
  _space_group_symop_operation_xyz
  'x, y, z'

loop_
  _atom_site_type_symbol
  _atom_site_label
  _atom_site_symmetry_multiplicity
  _atom_site_fract_x
  _atom_site_fract_y
  _atom_site_fract_z
  _atom_site_occupancy
  C   C1        1.0  0.008452459397679878  0.005777467525617868  0.0003608017150163396  1.0000
  O   O1        1.0  0.008452459397679878  0.005777467525617868  0.0004744902627216392  1.0000
  In  In1       1.0  0.004527467419453579  0.009222532155889265  0.00012963158484983713  1.0000
  In  In2       1.0  0.009527467844110736  0.009222532155889265  0.9998489499571228  1.0000
  In  In3       1.0  0.005472532368217843  0.004222532527464277  0.00018268408646271165  1.0000
  In  In4       1.0  0.00047253244120579196  0.004222532527464277  0.9999020023147611  1.0000
  In  In5       1.0  0.004527467419453579  0.0023324026299357476  0.9998489500123415  1.0000
  In  In6       1.0  0.009527467844110736  0.0023324026299357476  0.00012963181197909521  1.0000
  In  In7       1.0  0.005472532368217843  0.007332402789182182  0.9999020025139544  1.0000
  In  In8       1.0  0.00047253244120579196  0.007332402789182182  0.00018268445196541674  1.0000
  In  In9       1.0  0.002027467605241085  0.004222532527464277  0.9997086091348716  1.0000
  In  In10      1.0  0.007027467631782158  0.004222532527464277  0.9999892909121604  1.0000
  In  In11      1.0  0.002972532421299988  0.009222532155889265  0.9997616616290349  1.0000
  In  In12      1.0  0.007972532580546423  0.009222532155889265  4.234341377320818e-05  1.0000
  In  In13      1.0  0.002027467605241085  0.007332402789182182  0.9999892907073799  1.0000
  In  In14      1.0  0.007027467631782158  0.007332402789182182  0.9997086090573041  1.0000
  In  In15      1.0  0.002972532421299988  0.0023324026299357476  4.234320154314079e-05  1.0000
  In  In16      1.0  0.007972532580546423  0.0023324026299357476  0.999761661558917  1.0000
  Ag  Ag1       1.0  0.003750000053082145  0.005777467525617868  0.9996649650418837  1.0000
  Ag  Ag2       1.0  0.00875000021232858  0.005777467525617868  0.999945646826622  1.0000
  Ag  Ag3       1.0  0.00625  0.0007774675654294762  0.9998053059268033  1.0000
  Ag  Ag4       1.0  0.0012500001061642894  0.0007774675654294762  8.59875843286362e-05  1.0000
  Ag  Ag5       1.0  0.00625  0.0007774675654294762  8.598778165951298e-05  1.0000
  Ag  Ag6       1.0  0.0012500001061642894  0.0007774675654294762  0.9998053060118204  1.0000
  Ag  Ag7       1.0  0.003750000053082145  0.005777467525617868  0.9999456468967399  1.0000
  Ag  Ag8       1.0  0.00875000021232858  0.005777467525617868  0.9996649649717657  1.0000
  In  In17      1.0  0.004527467419453579  0.009222532155889265  0.9995682681574853  1.0000
  In  In18      1.0  0.009527467844110736  0.009222532155889265  0.9992875865297584  1.0000
  In  In19      1.0  0.005472532368217843  0.004222532527464277  0.9996213206590981  1.0000
  In  In20      1.0  0.00047253244120579196  0.004222532527464277  0.9993406388873967  1.0000
  In  In21      1.0  0.004527467419453579  0.0023324026299357476  0.9992875865849771  1.0000
  In  In22      1.0  0.009527467844110736  0.0023324026299357476  0.9995682683846145  1.0000
  In  In23      1.0  0.005472532368217843  0.007332402789182182  0.9993406390865899  1.0000
  In  In24      1.0  0.00047253244120579196  0.007332402789182182  0.999621320742253  1.0000
  In  In25      1.0  0.002027467605241085  0.004222532527464277  0.9991472457075071  1.0000
  In  In26      1.0  0.007027467631782158  0.004222532527464277  0.9994279274847958  1.0000
  In  In27      1.0  0.002972532421299988  0.009222532155889265  0.9992002982016703  1.0000
  In  In28      1.0  0.007972532580546423  0.009222532155889265  0.9994809799864087  1.0000
  In  In29      1.0  0.002027467605241085  0.007332402789182182  0.9994279272800154  1.0000
  In  In30      1.0  0.007027467631782158  0.007332402789182182  0.9991472456299395  1.0000
  In  In31      1.0  0.002972532421299988  0.0023324026299357476  0.9994809797741786  1.0000
  In  In32      1.0  0.007972532580546423  0.0023324026299357476  0.9992002981315524  1.0000
  Ag  Ag9       1.0  0.003750000053082145  0.005777467525617868  0.9991036013321711  1.0000
  Ag  Ag10      1.0  0.00875000021232858  0.005777467525617868  0.9993842831169095  1.0000
  Ag  Ag11      1.0  0.00625  0.0007774675654294762  0.9992439422170908  1.0000
  Ag  Ag12      1.0  0.0012500001061642894  0.0007774675654294762  0.9995246241569641  1.0000
  Ag  Ag13      1.0  0.00625  0.0007774675654294762  0.999524624071947  1.0000
  Ag  Ag14      1.0  0.0012500001061642894  0.0007774675654294762  0.9992439423021079  1.0000
  Ag  Ag15      1.0  0.003750000053082145  0.005777467525617868  0.9993842831870274  1.0000
  Ag  Ag16      1.0  0.00875000021232858  0.005777467525617868  0.9991036012620532  1.0000
