data_image0
_chemical_formula_structural       HV4As4V4As4V4As4V4As4
_chemical_formula_sum              "H1 V16 As16"
_cell_length_a       6.708456039428711
_cell_length_b       5.890796184539795
_cell_length_c       107.8258285522461
_cell_angle_alpha    90.0
_cell_angle_beta     90.0
_cell_angle_gamma    90.0

_space_group_name_H-M_alt    "P 1"
_space_group_IT_number       1

loop_
  _space_group_symop_operation_xyz
  'x, y, z'

loop_
  _atom_site_type_symbol
  _atom_site_label
  _atom_site_symmetry_multiplicity
  _atom_site_fract_x
  _atom_site_fract_y
  _atom_site_fract_z
  _atom_site_occupancy
  H   H1        1.0  0.0012500006552688915  0.009869561254770258  0.0001142631469572482  1.0000
  V   V1        1.0  0.001250002182378596  5.6769501674623675e-05  0.9992336275256322  1.0000
  V   V2        1.0  0.0037500022434629843  0.009957552228467217  0.9994477404686015  1.0000
  V   V3        1.0  0.0037500022434629843  0.0049575521019888874  0.9989412900645386  1.0000
  V   V4        1.0  0.001250002182378596  0.0050567696083907146  0.9991554030075079  1.0000
  As  As1       1.0  0.001250002182378596  0.001942747136884764  0.9990054118976389  1.0000
  As  As2       1.0  0.0037500022434629843  0.008071574415396925  0.9990912811744076  1.0000
  As  As3       1.0  0.0037500022434629843  0.0030715746051144196  0.9992977490823393  1.0000
  As  As4       1.0  0.001250002182378596  0.006942747105265182  0.9993836183591079  1.0000
  V   V5        1.0  0.0012499978787057922  4.244790097544894e-05  0.9998239486074632  1.0000
  V   V6        1.0  0.003750000577525125  0.009869561254770258  0.0  1.0000
  V   V7        1.0  0.0037500022434629843  0.0049575521019888874  0.9995259647103325  1.0000
  V   V8        1.0  0.001250002182378596  0.0050567696083907146  0.9997400776533019  1.0000
  As  As5       1.0  0.001250002182378596  0.001942747136884764  0.9995900868198261  1.0000
  As  As6       1.0  0.0037500022434629843  0.008071574415396925  0.9996759560965948  1.0000
  As  As7       1.0  0.003749999189243575  0.003255092763759932  0.999884662236404  1.0000
  As  As8       1.0  0.0012500007940970464  0.006901821879860563  0.9999803921158482  1.0000
  V   V9        1.0  0.006250002443375527  5.6769501674623675e-05  0.9992336275256322  1.0000
  V   V10       1.0  0.008750002087975451  0.009957552228467217  0.9994477404686015  1.0000
  V   V11       1.0  0.008750002087975451  0.0049575521019888874  0.9989412900645386  1.0000
  V   V12       1.0  0.006250002443375527  0.0050567696083907146  0.9991554030075079  1.0000
  As  As9       1.0  0.006250002443375527  0.001942747136884764  0.9990054118976389  1.0000
  As  As10      1.0  0.008750002087975451  0.008071574415396925  0.9990912811744076  1.0000
  As  As11      1.0  0.008750002087975451  0.0030715746051144196  0.9992977490823393  1.0000
  As  As12      1.0  0.006250002443375527  0.006942747105265182  0.9993836183591079  1.0000
  V   V13       1.0  0.006249998000874568  4.244790097544894e-05  0.9998239486074632  1.0000
  V   V14       1.0  0.008750000977350212  0.009869561254770258  0.0  1.0000
  V   V15       1.0  0.008750002087975451  0.0049575521019888874  0.9995259647103325  1.0000
  V   V16       1.0  0.006250002443375527  0.0050567696083907146  0.9997400776533019  1.0000
  As  As13      1.0  0.006250002443375527  0.001942747136884764  0.9995900868198261  1.0000
  As  As14      1.0  0.008750002087975451  0.008071574415396925  0.9996759560965948  1.0000
  As  As15      1.0  0.008749999311412352  0.003255092763759932  0.999884662236404  1.0000
  As  As16      1.0  0.006250000777437668  0.006901821879860563  0.9999803921158482  1.0000
