data_image0
_chemical_formula_structural       COCa2Zn2Si2Ca2Zn2Si2Ca2Zn2Si2Ca2Zn2Si2Ca2Zn2Si2Ca2Zn2Si2
_chemical_formula_sum              "C1 O1 Ca12 Zn12 Si12"
_cell_length_a       9.355287536930032
_cell_length_b       8.566588526459068
_cell_length_c       108.54964447021484
_cell_angle_alpha    60.00000048139033
_cell_angle_beta     62.751707978101955
_cell_angle_gamma    76.76628604381031

_space_group_name_H-M_alt    "P 1"
_space_group_IT_number       1

loop_
  _space_group_symop_operation_xyz
  'x, y, z'

loop_
  _atom_site_type_symbol
  _atom_site_label
  _atom_site_symmetry_multiplicity
  _atom_site_fract_x
  _atom_site_fract_y
  _atom_site_fract_z
  _atom_site_occupancy
  C   C1        1.0  0.004192736037767717  0.003986159461699649  0.9996620645748565  1.0000
  O   O1        1.0  0.004192736037767717  0.003986159461699649  0.9997726132954651  1.0000
  Ca  Ca1       1.0  0.006301139047484782  0.000916144712431306  0.9994717459113086  1.0000
  Ca  Ca2       1.0  0.0012191925644542143  0.0008400789154729374  0.9992896844508947  1.0000
  Zn  Zn1       1.0  0.0037808450327147147  0.004188373247086517  0.9994488993118995  1.0000
  Zn  Zn2       1.0  0.008564048326127099  0.002191118504333251  0.9995756085251184  1.0000
  Si  Si1       1.0  0.0035683177860992444  0.002425007044770822  0.9993414816519338  1.0000
  Si  Si2       1.0  0.008669139445396663  0.00411264557612977  0.9992684322867459  1.0000
  Ca  Ca3       1.0  0.006280807731163268  0.0008116266198473749  0.9990944238809499  1.0000
  Ca  Ca4       1.0  0.0012808074221086273  0.0008116266198473749  0.9988971270736184  1.0000
  Zn  Zn3       1.0  0.003780807408671469  0.004144959801702938  0.999061541140326  1.0000
  Zn  Zn4       1.0  0.00878080760574979  0.0024782932421586724  0.9991273067787594  1.0000
  Si  Si3       1.0  0.003780807408671469  0.0024782932421586724  0.9989300099670093  1.0000
  Si  Si4       1.0  0.00878080760574979  0.004144959801702938  0.998864244576591  1.0000
  Ca  Ca5       1.0  0.006280807731163268  0.0008116266198473749  0.9986998305054648  1.0000
  Ca  Ca6       1.0  0.0012808074221086273  0.0008116266198473749  0.9985025342472337  1.0000
  Zn  Zn5       1.0  0.003780807408671469  0.004144959801702938  0.998666947764841  1.0000
  Zn  Zn6       1.0  0.00878080760574979  0.0024782932421586724  0.9987327134032743  1.0000
  Si  Si5       1.0  0.003780807408671469  0.0024782932421586724  0.9985354171406247  1.0000
  Si  Si6       1.0  0.00878080760574979  0.004144959801702938  0.998469651201106  1.0000
  Ca  Ca7       1.0  0.006301139047484782  0.005916144767666294  0.999471746040913  1.0000
  Ca  Ca8       1.0  0.0012191925644542143  0.005840078656872765  0.9992896845928829  1.0000
  Zn  Zn7       1.0  0.0037808450327147147  0.009188373427855568  0.9994488994365506  1.0000
  Zn  Zn8       1.0  0.008564048326127099  0.007191118434034175  0.9995756086596764  1.0000
  Si  Si7       1.0  0.0035683177860992444  0.007425006974471746  0.9993414812373915  1.0000
  Si  Si8       1.0  0.008669139445396663  0.009112645254762564  0.9992684324312109  1.0000
  Ca  Ca9       1.0  0.006280807731163268  0.005811626612315331  0.9990944240130312  1.0000
  Ca  Ca10      1.0  0.0012808074221086273  0.005811626612315331  0.9988971272056997  1.0000
  Zn  Zn9       1.0  0.003780807408671469  0.00914495973140386  0.999061541274884  1.0000
  Zn  Zn10      1.0  0.00878080760574979  0.007478293171859596  0.9991273069133174  1.0000
  Si  Si9       1.0  0.003780807408671469  0.007478293171859596  0.9989300101015673  1.0000
  Si  Si10      1.0  0.00878080760574979  0.00914495973140386  0.998864244711149  1.0000
  Ca  Ca11      1.0  0.006280807731163268  0.005811626612315331  0.9986998306375462  1.0000
  Ca  Ca12      1.0  0.0012808074221086273  0.005811626612315331  0.998502534379315  1.0000
  Zn  Zn11      1.0  0.003780807408671469  0.00914495973140386  0.998666947899399  1.0000
  Zn  Zn12      1.0  0.00878080760574979  0.007478293171859596  0.9987327135378323  1.0000
  Si  Si11      1.0  0.003780807408671469  0.007478293171859596  0.9985354167260824  1.0000
  Si  Si12      1.0  0.00878080760574979  0.00914495973140386  0.998469651335664  1.0000
