data_image0
_chemical_formula_structural       HAs12Si12
_chemical_formula_sum              "H1 As12 Si12"
_cell_length_a       10.297406033407045
_cell_length_b       9.118569151166257
_cell_length_c       99.30355072021484
_cell_angle_alpha    95.96145582769003
_cell_angle_beta     96.64965408595037
_cell_angle_gamma    68.15296834631599

_space_group_name_H-M_alt    "P 1"
_space_group_IT_number       1

loop_
  _space_group_symop_operation_xyz
  'x, y, z'

loop_
  _atom_site_type_symbol
  _atom_site_label
  _atom_site_symmetry_multiplicity
  _atom_site_fract_x
  _atom_site_fract_y
  _atom_site_fract_z
  _atom_site_occupancy
  H   H1        1.0  0.006372073302203437  0.005107465923811094  0.00019125448478221534  1.0000
  As  As1       1.0  0.009403101628234167  0.001603374978121215  0.9996546627057414  1.0000
  As  As2       1.0  0.0004926004547551802  0.0062635802917212265  0.999759711103442  1.0000
  As  As3       1.0  0.003328248360981897  0.0022337370209151142  0.9996422619807748  1.0000
  As  As4       1.0  0.006567453526442221  0.0056332187400827734  0.9997721118307445  1.0000
  As  As5       1.0  0.006806504639695879  0.009156147358225172  0.9995060794071712  1.0000
  As  As6       1.0  0.003089197443293468  0.007460807928047683  0.9995394313242564  1.0000
  As  As7       1.0  0.009507399693874393  0.0028359676307646684  3.384453881312879e-05  1.0000
  As  As8       1.0  0.0006269366550831139  0.007368986630523233  0.00011087140179180485  1.0000
  As  As9       1.0  0.003538402756006587  0.003212812275108666  1.8594601346543157e-05  1.0000
  As  As10      1.0  0.006547629861444945  0.007065065758597299  0.00013018747668275133  1.0000
  As  As11      1.0  0.006904914627423019  0.0004721015807348546  0.9998827230288172  1.0000
  As  As12      1.0  0.0029747632318370028  0.008988706625355026  0.9998807590972993  1.0000
  Si  Si1       1.0  0.005849898886831452  0.0014998941307273232  0.9996566985653613  1.0000
  Si  Si2       1.0  0.004045803000592666  0.006367060808749952  0.9997576752383232  1.0000
  Si  Si3       1.0  0.006955151423434504  0.0032664843229949984  0.99962194494565  1.0000
  Si  Si4       1.0  0.002940550268424385  0.004600471107637723  0.9997924288603702  1.0000
  Si  Si5       1.0  0.009029674517128486  0.009527898312530807  0.9994987657962323  1.0000
  Si  Si6       1.0  0.0008660271747304041  0.007089057134532327  0.9995467446319186  1.0000
  Si  Si7       1.0  0.00589256574396092  0.002879502354705657  1.0555121625370248e-06  1.0000
  Si  Si8       1.0  0.004353221762233335  0.0072320487379657  4.432984692071863e-05  1.0000
  Si  Si9       1.0  0.0071686648468315605  0.004545835328270031  1.1416069827577431e-05  1.0000
  Si  Si10      1.0  0.00292396223014001  0.00590126865168393  9.139028024175715e-05  1.0000
  Si  Si11      1.0  0.009053962936302585  0.0009388382982907905  0.9998775488525258  1.0000
  Si  Si12      1.0  0.0008827640381540064  0.008428758302633246  0.9999100430421272  1.0000
