data_image0
_chemical_formula_structural       CONi2Rh4Se8
_chemical_formula_sum              "C1 O1 Ni2 Rh4 Se8"
_cell_length_a       6.4424583819971035
_cell_length_b       6.460956759585546
_cell_length_c       98.3558349609375
_cell_angle_alpha    92.37255950128205
_cell_angle_beta     90.65745724802179
_cell_angle_gamma    118.25449271414239

_space_group_name_H-M_alt    "P 1"
_space_group_IT_number       1

loop_
  _space_group_symop_operation_xyz
  'x, y, z'

loop_
  _atom_site_type_symbol
  _atom_site_label
  _atom_site_symmetry_multiplicity
  _atom_site_fract_x
  _atom_site_fract_y
  _atom_site_fract_z
  _atom_site_occupancy
  C   C1        1.0  0.007101567097379351  0.00884912445553454  0.00019126988328942908  1.0000
  O   O1        1.0  0.007101567097379351  0.00884912445553454  0.0003132761102048016  1.0000
  Ni  Ni1       1.0  0.00497053081295903  0.000782639107710125  0.9997721814248453  1.0000
  Ni  Ni2       1.0  0.003753854917866473  0.008343164513206998  0.9994244824502595  1.0000
  Rh  Rh1       1.0  0.002538566732165151  0.006236580032405517  0.9998723763450638  1.0000
  Rh  Rh2       1.0  0.008184604585724243  0.0077542927063003145  2.7238280711466213e-05  1.0000
  Rh  Rh3       1.0  0.0012579934917667046  0.0037267964114091044  0.9995195463104899  1.0000
  Rh  Rh4       1.0  0.007499716717795898  0.00545953285098572  0.9996897919227417  1.0000
  Se  Se1       1.0  0.005106900129120011  0.004312514596725332  0.9999102674150488  1.0000
  Se  Se2       1.0  0.0005827912108749046  0.008692962830355332  0.9998358726745858  1.0000
  Se  Se3       1.0  0.0058028859438966395  0.009619881109082212  2.5788644238902344e-06  1.0000
  Se  Se4       1.0  0.009340500854445764  0.0028801188253675574  0.9997429089415047  1.0000
  Se  Se5       1.0  0.003969254210274743  0.0018848205126661504  0.9995574774539382  1.0000
  Se  Se6       1.0  0.009417209054771353  0.006306210109276115  0.9994664289466989  1.0000
  Se  Se7       1.0  0.004788455698942375  0.0073015084219775215  0.9996518604751713  1.0000
  Se  Se8       1.0  0.008090500802966558  0.00038011886305894  0.9993825360915569  1.0000
