data_image0
_chemical_formula_structural       COCu4Ge2Se6
_chemical_formula_sum              "C1 O1 Cu4 Ge2 Se6"
_cell_length_a       5.662831783294678
_cell_length_b       6.959047447316835
_cell_length_c       101.14305877685547
_cell_angle_alpha    93.56313056316459
_cell_angle_beta     90.0
_cell_angle_gamma    114.00825831442523

_space_group_name_H-M_alt    "P 1"
_space_group_IT_number       1

loop_
  _space_group_symop_operation_xyz
  'x, y, z'

loop_
  _atom_site_type_symbol
  _atom_site_label
  _atom_site_symmetry_multiplicity
  _atom_site_fract_x
  _atom_site_fract_y
  _atom_site_fract_z
  _atom_site_occupancy
  C   C1        1.0  0.003030001150959331  0.008645528751978654  9.491088551711932e-05  1.0000
  O   O1        1.0  0.003030001150959331  0.008645528751978654  0.00021355436791886215  1.0000
  Cu  Cu1       1.0  0.003826567296424777  0.0023022154793972526  0.9994596065559082  1.0000
  Cu  Cu2       1.0  0.0008993515404923268  0.006447784085945238  0.9995883666416908  1.0000
  Cu  Cu3       1.0  0.004897403651095917  0.0046515584055262646  0.9998586850607004  1.0000
  Cu  Cu4       1.0  0.0029371016253365487  0.008459729700733089  0.9999232653295007  1.0000
  Ge  Ge1       1.0  0.007031186020389635  0.008124999953009998  0.9993315422270126  1.0000
  Ge  Ge2       1.0  0.008281185928349675  0.0006249999794418745  0.9997164309721562  1.0000
  Se  Se1       1.0  0.007899588500057831  0.005136313716749687  0.99939727449431  1.0000
  Se  Se2       1.0  0.002138274530269942  0.0036136861422803096  0.9996506989991999  1.0000
  Se  Se3       1.0  0.004899499591009576  0.009374999765049994  0.9995239865280069  1.0000
  Se  Se4       1.0  0.009100648217793477  0.007585312155892222  0.999783362598534  1.0000
  Se  Se5       1.0  0.002494525021591216  0.00547278033238396  2.3401886437891882e-05  1.0000
  Se  Se6       1.0  0.0063846456076322115  0.0018682371227003657  0.9999041127207728  1.0000
