data_image0
_chemical_formula_structural       COFe4Pt4Fe4Pt4Fe4Pt4Fe4Pt4
_chemical_formula_sum              "C1 O1 Fe16 Pt16"
_cell_length_a       7.876316135999568
_cell_length_b       7.563703536987305
_cell_length_c       100.25481414794922
_cell_angle_alpha    90.0
_cell_angle_beta     76.10888850038305
_cell_angle_gamma    76.10888850038305

_space_group_name_H-M_alt    "P 1"
_space_group_IT_number       1

loop_
  _space_group_symop_operation_xyz
  'x, y, z'

loop_
  _atom_site_type_symbol
  _atom_site_label
  _atom_site_symmetry_multiplicity
  _atom_site_fract_x
  _atom_site_fract_y
  _atom_site_fract_z
  _atom_site_occupancy
  C   C1        1.0  0.009085901905230658  0.0038945491308158206  0.9999960270785915  1.0000
  O   O1        1.0  0.009085901905230658  0.0038945491308158206  0.00011572232136542742  1.0000
  Fe  Fe1       1.0  0.005914098557385186  0.0009374998594223513  0.9998884530170526  1.0000
  Fe  Fe2       1.0  0.0009140982355654684  0.0021874999398772805  0.9996055353170881  1.0000
  Fe  Fe3       1.0  0.0009140982355654684  0.004687499930026841  0.9997941474619758  1.0000
  Fe  Fe4       1.0  0.005914098557385186  0.0034374998495719116  0.9996998414666964  1.0000
  Pt  Pt1       1.0  0.008414098215451736  0.00031249994490571383  0.9996526884785409  1.0000
  Pt  Pt2       1.0  0.0034140983964753274  0.001562499899649816  0.9997469944643361  1.0000
  Pt  Pt3       1.0  0.0034140983964753274  0.004062499889799376  0.9999356060146923  1.0000
  Pt  Pt4       1.0  0.008414098215451736  0.002812499935055274  0.9998413000288973  1.0000
  Fe  Fe5       1.0  0.005914098557385186  0.0009374998594223513  0.9995112293218087  1.0000
  Fe  Fe6       1.0  0.0009140982355654684  0.0021874999398772805  0.9992283113245782  1.0000
  Fe  Fe7       1.0  0.0009140982355654684  0.004687499930026841  0.9994169231722003  1.0000
  Fe  Fe8       1.0  0.005914098557385186  0.0034374998495719116  0.999322617176921  1.0000
  Pt  Pt5       1.0  0.008414098215451736  0.00031249994490571383  0.9992754641887654  1.0000
  Pt  Pt6       1.0  0.0034140983964753274  0.001562499899649816  0.9993697701745606  1.0000
  Pt  Pt7       1.0  0.0034140983964753274  0.004062499889799376  0.9995583823194484  1.0000
  Pt  Pt8       1.0  0.008414098215451736  0.002812499935055274  0.9994640763336532  1.0000
  Fe  Fe9       1.0  0.005914098557385186  0.005937500085982465  0.9998884530170526  1.0000
  Fe  Fe10      1.0  0.0009140982355654684  0.0071875001664373946  0.9996055353170881  1.0000
  Fe  Fe11      1.0  0.0009140982355654684  0.009687500402847948  0.9997941474619758  1.0000
  Fe  Fe12      1.0  0.005914098557385186  0.00843750032239302  0.9996998414666964  1.0000
  Pt  Pt9       1.0  0.008414098215451736  0.005312500171465827  0.9996526884785409  1.0000
  Pt  Pt10      1.0  0.0034140983964753274  0.006562500126209929  0.9997469944643361  1.0000
  Pt  Pt11      1.0  0.0034140983964753274  0.009062500362620483  0.9999356060146923  1.0000
  Pt  Pt12      1.0  0.008414098215451736  0.007812500407876382  0.9998413000288973  1.0000
  Fe  Fe13      1.0  0.005914098557385186  0.005937500085982465  0.9995112293218087  1.0000
  Fe  Fe14      1.0  0.0009140982355654684  0.0071875001664373946  0.9992283113245782  1.0000
  Fe  Fe15      1.0  0.0009140982355654684  0.009687500402847948  0.9994169231722003  1.0000
  Fe  Fe16      1.0  0.005914098557385186  0.00843750032239302  0.999322617176921  1.0000
  Pt  Pt13      1.0  0.008414098215451736  0.005312500171465827  0.9992754641887654  1.0000
  Pt  Pt14      1.0  0.0034140983964753274  0.006562500126209929  0.9993697701745606  1.0000
  Pt  Pt15      1.0  0.0034140983964753274  0.009062500362620483  0.9995583823194484  1.0000
  Pt  Pt16      1.0  0.008414098215451736  0.007812500407876382  0.9994640763336532  1.0000
