data_image0
_chemical_formula_structural       COSn16Au8
_chemical_formula_sum              "C1 O1 Sn16 Au8"
_cell_length_a       7.077461242675781
_cell_length_b       7.236040115356445
_cell_length_c       106.69144439697266
_cell_angle_alpha    90.0
_cell_angle_beta     90.0
_cell_angle_gamma    90.0

_space_group_name_H-M_alt    "P 1"
_space_group_IT_number       1

loop_
  _space_group_symop_operation_xyz
  'x, y, z'

loop_
  _atom_site_type_symbol
  _atom_site_label
  _atom_site_symmetry_multiplicity
  _atom_site_fract_x
  _atom_site_fract_y
  _atom_site_fract_z
  _atom_site_occupancy
  C   C1        1.0  0.005719626502575845  0.00233644062556919  0.0001623421055284938  1.0000
  O   O1        1.0  0.005719626502575845  0.00233644062556919  0.00027481620676988224  1.0000
  Sn  Sn1       1.0  0.00627009504439006  0.005264020176900597  0.9991021717312234  1.0000
  Sn  Sn2       1.0  0.001270095007544882  0.009735978834636479  0.9995029881271523  1.0000
  Sn  Sn3       1.0  0.0037066944092751957  0.000264020393770392  0.9989298175329036  1.0000
  Sn  Sn4       1.0  0.008706694577710297  0.00473597967894856  0.9996753420461403  1.0000
  Sn  Sn5       1.0  0.0037066944092751957  0.00473597967894856  0.9995029881271523  1.0000
  Sn  Sn6       1.0  0.008706694577710297  0.000264020393770392  0.9991021717312234  1.0000
  Sn  Sn7       1.0  0.00627009504439006  0.009735978834636479  0.9996753420461403  1.0000
  Sn  Sn8       1.0  0.001270095007544882  0.005264020176900597  0.9989298175329036  1.0000
  Sn  Sn9       1.0  0.009396931092257161  0.0011119173101670134  0.9999985195410039  1.0000
  Sn  Sn10      1.0  0.003589079073592799  0.0025659926060666847  0.9997770719257171  1.0000
  Sn  Sn11      1.0  0.0014423016067799037  0.007483416495739461  0.9992016122066621  1.0000
  Sn  Sn12      1.0  0.00644230151203516  0.007516583030622055  0.9994035476517136  1.0000
  Sn  Sn13      1.0  0.001387757847189209  0.007565270492714502  0.9997770423165372  1.0000
  Sn  Sn14      1.0  0.005574859165517265  0.006114771167373396  0.9999985804353552  1.0000
  Sn  Sn15      1.0  0.008534488110065196  0.0025165833601096957  0.9994035476517136  1.0000
  Sn  Sn16      1.0  0.003534487678450252  0.002483416567814883  0.9992016122066621  1.0000
  Au  Au1       1.0  0.005110743615198021  0.008884407728831145  0.9991682837226794  1.0000
  Au  Au2       1.0  0.00011074320003181572  0.006115592312354812  0.9994368758563645  1.0000
  Au  Au3       1.0  0.005719626502575845  0.00233644062556919  0.0  1.0000
  Au  Au4       1.0  0.00988925741646697  0.0011747584544634243  0.9997393788810148  1.0000
  Au  Au5       1.0  0.0048660463648269245  0.001115592384430233  0.9994368758563645  1.0000
  Au  Au6       1.0  0.009866046006902336  0.0038844075434943458  0.9991682837226794  1.0000
  Au  Au7       1.0  0.005087552733661256  0.006173834916049185  0.9997393487131712  1.0000
  Au  Au8       1.0  0.009255344546799087  0.007333488807568411  0.9999998463674626  1.0000
