data_image0
_chemical_formula_structural       HTi18Pt6
_chemical_formula_sum              "H1 Ti18 Pt6"
_cell_length_a       7.156867504119873
_cell_length_b       7.156867479181063
_cell_length_c       105.06134796142578
_cell_angle_alpha    90.0
_cell_angle_beta     90.0
_cell_angle_gamma    59.99999988473041

_space_group_name_H-M_alt    "P 1"
_space_group_IT_number       1

loop_
  _space_group_symop_operation_xyz
  'x, y, z'

loop_
  _atom_site_type_symbol
  _atom_site_label
  _atom_site_symmetry_multiplicity
  _atom_site_fract_x
  _atom_site_fract_y
  _atom_site_fract_z
  _atom_site_occupancy
  H   H1        1.0  0.008721747933588264  0.00961764292392129  8.533181031822795e-05  1.0000
  Ti  Ti1       1.0  0.006666776024498608  0.009549023494313717  0.999725326303841  1.0000
  Ti  Ti2       1.0  1.0955231207139464e-07  0.0028823571361831467  0.9994472239378841  1.0000
  Ti  Ti3       1.0  0.003716422616727953  0.00635891572638969  0.0  1.0000
  Ti  Ti4       1.0  0.0001894879440357633  0.007781584683128269  0.9998605685628753  1.0000
  Ti  Ti5       1.0  0.0033334428024894116  0.001215690396389418  0.9995862749790296  1.0000
  Ti  Ti6       1.0  0.0066667761962122835  0.004549023650585246  0.9993081728967385  1.0000
  Ti  Ti7       1.0  0.009166775946362843  0.004549023650585246  0.999725326303841  1.0000
  Ti  Ti8       1.0  0.0025001092608788714  0.007882356979911617  0.9994472239378841  1.0000
  Ti  Ti9       1.0  0.005975865483871208  0.0006887143998790526  0.9999999665274232  1.0000
  Ti  Ti10      1.0  0.007399665838088557  0.002793004681933488  0.9998606150840839  1.0000
  Ti  Ti11      1.0  0.0008334427679293616  0.006215690465509518  0.9995862749790296  1.0000
  Ti  Ti12      1.0  0.004166776274348049  0.009549023494313717  0.9993081728967385  1.0000
  Ti  Ti13      1.0  0.00416677643533543  0.007049023422188396  0.999725326303841  1.0000
  Ti  Ti14      1.0  0.00750010959561808  0.0003823571016230967  0.9994472239378841  1.0000
  Ti  Ti15      1.0  0.00030655576151463555  0.004100417375289935  0.999999997163341  1.0000
  Ti  Ti16      1.0  0.002410383317185206  0.0005722876777677602  0.9998605878521569  1.0000
  Ti  Ti17      1.0  0.005833442949737529  0.0037156903933841965  0.9995862749790296  1.0000
  Ti  Ti18      1.0  0.009166775935636548  0.007049023422188396  0.9993081728967385  1.0000
  Pt  Pt1       1.0  0.006666465951947157  0.007048763169987497  0.9999209871313895  1.0000
  Pt  Pt2       1.0  1.0959691937899863e-07  0.0003823571016230967  0.9996558003577695  1.0000
  Pt  Pt3       1.0  0.0033334426790673022  0.0037156903933841965  0.9993776982754783  1.0000
  Pt  Pt4       1.0  0.006666776185485989  0.007049023422188396  0.9995167496002898  1.0000
  Pt  Pt5       1.0  0.00999988992607784  0.00038262937471087366  4.365164418023585e-05  1.0000
  Pt  Pt6       1.0  0.0033334566957832833  0.00371527717539778  0.9998016466156778  1.0000
