data_image0
_chemical_formula_structural       COCa2Cu2As2Ca2Cu2As2Ca2Cu2As2Ca2Cu2As2Ca2Cu2As2Ca2Cu2As2
_chemical_formula_sum              "C1 O1 Ca12 Cu12 As12"
_cell_length_a       9.11817449131366
_cell_length_b       8.502668383736586
_cell_length_c       108.26200866699219
_cell_angle_alpha    60.00000001166874
_cell_angle_beta     62.208954235515336
_cell_angle_gamma    76.51892371506302

_space_group_name_H-M_alt    "P 1"
_space_group_IT_number       1

loop_
  _space_group_symop_operation_xyz
  'x, y, z'

loop_
  _atom_site_type_symbol
  _atom_site_label
  _atom_site_symmetry_multiplicity
  _atom_site_fract_x
  _atom_site_fract_y
  _atom_site_fract_z
  _atom_site_occupancy
  C   C1        1.0  0.0027412857255680037  0.0031647251550678377  0.999679557211168  1.0000
  O   O1        1.0  0.0027412857255680037  0.0031647251550678377  0.9997903996430278  1.0000
  Ca  Ca1       1.0  0.006258095449089251  0.0008478093146822377  0.9995099254659698  1.0000
  Ca  Ca2       1.0  0.0011977157398111763  0.0008012670069114748  0.99932391795702  1.0000
  Cu  Cu1       1.0  0.0036328681085289025  0.004234647296556534  0.9994764870881798  1.0000
  Cu  Cu2       1.0  0.008257673036709783  0.002388239067381537  0.9995819463293444  1.0000
  As  As1       1.0  0.003636010837863519  0.00238608211520722  0.9993736166296805  1.0000
  As  As2       1.0  0.008720230146544272  0.004110039357458847  0.9992937525394643  1.0000
  Ca  Ca3       1.0  0.006302284394118509  0.0007653526907956874  0.9991290444627022  1.0000
  Ca  Ca4       1.0  0.0013022842278609685  0.0007653526907956874  0.9989326995110707  1.0000
  Cu  Cu3       1.0  0.0038022843109897387  0.004098685952458275  0.9990963203531323  1.0000
  Cu  Cu4       1.0  0.008802283784507528  0.002432019353246428  0.9991617681840302  1.0000
  As  As3       1.0  0.0038022843109897387  0.002432019353246428  0.9989654237557547  1.0000
  As  As4       1.0  0.008802283784507528  0.004098685952458275  0.9988999756799148  1.0000
  Ca  Ca5       1.0  0.006302284394118509  0.0007653526907956874  0.9987363548106499  1.0000
  Ca  Ca6       1.0  0.0013022842278609685  0.0007653526907956874  0.998540010134298  1.0000
  Cu  Cu5       1.0  0.0038022843109897387  0.004098685952458275  0.9987036307010801  1.0000
  Cu  Cu6       1.0  0.008802283784507528  0.002432019353246428  0.9987690790825372  1.0000
  As  As5       1.0  0.0038022843109897387  0.002432019353246428  0.9985727341037024  1.0000
  As  As6       1.0  0.008802283784507528  0.004098685952458275  0.9985072860278627  1.0000
  Ca  Ca7       1.0  0.006258095449089251  0.005847809238795566  0.9995099250505248  1.0000
  Ca  Ca8       1.0  0.0011977157398111763  0.0058012669310248035  0.9993239180921343  1.0000
  Cu  Cu7       1.0  0.0036328681085289025  0.009234647094192076  0.9994764872282607  1.0000
  Cu  Cu8       1.0  0.008257673036709783  0.007388238865017078  0.9995819459188661  1.0000
  As  As7       1.0  0.003636010837863519  0.007386082165798335  0.999373616759828  1.0000
  As  As8       1.0  0.008720230146544272  0.009110039155094389  0.999293752128986  1.0000
  Ca  Ca9       1.0  0.006302284394118509  0.0057653528046256956  0.9991290440398072  1.0000
  Ca  Ca10      1.0  0.0013022842278609685  0.0057653528046256956  0.9989326996387349  1.0000
  Cu  Cu9       1.0  0.0038022843109897387  0.009098685497138244  0.9990963199525873  1.0000
  Cu  Cu10      1.0  0.008802283784507528  0.007432019403837543  0.9991617683141777  1.0000
  As  As9       1.0  0.0038022843109897387  0.007432019403837543  0.9989654238859023  1.0000
  As  As10      1.0  0.008802283784507528  0.009098685497138244  0.9988999752793698  1.0000
  Ca  Ca11      1.0  0.006302284394118509  0.0057653528046256956  0.9987363549383143  1.0000
  Ca  Ca12      1.0  0.0013022842278609685  0.0057653528046256956  0.9985400099866827  1.0000
  Cu  Cu11      1.0  0.0038022843109897387  0.009098685497138244  0.9987036308510943  1.0000
  Cu  Cu12      1.0  0.008802283784507528  0.007432019403837543  0.9987690792126848  1.0000
  As  As11      1.0  0.0038022843109897387  0.007432019403837543  0.99857273423385  1.0000
  As  As12      1.0  0.008802283784507528  0.009098685497138244  0.9985072861778768  1.0000
