data_image0
_chemical_formula_structural       HAg4In4Se12Si2
_chemical_formula_sum              "H1 Ag4 In4 Se12 Si2"
_cell_length_a       7.605524484213288
_cell_length_b       7.6055243063847895
_cell_length_c       106.74989318847656
_cell_angle_alpha    89.89480430371455
_cell_angle_beta     89.89480430617417
_cell_angle_gamma    60.793991226908076

_space_group_name_H-M_alt    "P 1"
_space_group_IT_number       1

loop_
  _space_group_symop_operation_xyz
  'x, y, z'

loop_
  _atom_site_type_symbol
  _atom_site_label
  _atom_site_symmetry_multiplicity
  _atom_site_fract_x
  _atom_site_fract_y
  _atom_site_fract_z
  _atom_site_occupancy
  H   H1        1.0  0.009710426674604464  0.0044755696168595396  6.969400220126856e-05  1.0000
  Ag  Ag1       1.0  0.0028806987397176414  0.008990005804385805  0.9994812375056215  1.0000
  Ag  Ag2       1.0  0.000979055747646911  0.004866298682660846  0.9998952428951358  1.0000
  Ag  Ag3       1.0  0.008870513673945606  0.0005721535441118417  0.9999525149159978  1.0000
  Ag  Ag4       1.0  0.005279974736062039  0.0036453301849574253  0.99929474989705  1.0000
  In  In1       1.0  0.0011164773941979055  0.00944000215374964  0.9990749455354158  1.0000
  In  In2       1.0  0.007585851943625987  0.009637294527364185  0.9996487147548675  1.0000
  In  In3       1.0  0.008294775364187944  0.007304096053283414  0.9993015599406606  1.0000
  In  In4       1.0  0.005412510445456154  0.006822747531448085  0.9998824799570012  1.0000
  Se  Se1       1.0  0.007147003779566934  0.0022481762374327793  0.9990618777622317  1.0000
  Se  Se2       1.0  0.0070490101478213425  0.007102464845612747  0.999067266878226  1.0000
  Se  Se3       1.0  0.0018621616345551508  0.007292950995964656  0.9992878040154043  1.0000
  Se  Se4       1.0  0.0052483142737906555  0.00556982783057543  0.9996410359526546  1.0000
  Se  Se5       1.0  0.00844741837747096  0.004090461058288719  1.3314434907322163e-05  1.0000
  Se  Se6       1.0  0.0021548020401837495  0.007227262440014104  0.9999987727438446  1.0000
  Se  Se7       1.0  0.0003940255744418694  0.005667820835432194  0.9996356468367542  1.0000
  Se  Se8       1.0  0.005556146693411121  0.0003627051611959678  0.9998592755914781  1.0000
  Se  Se9       1.0  0.005503618413901645  0.0004368827677474968  0.9994332138655391  1.0000
  Se  Se10      1.0  0.0024065715616220502  0.0021437232406393775  0.9991028810700188  1.0000
  Se  Se11      1.0  0.00028957273860400634  0.0009273887434061394  0.9996766504236827  1.0000
  Se  Se12      1.0  0.008796587677716133  0.0036651052123937607  0.9993654628614519  1.0000
  Si  Si1       1.0  0.008579074017654295  0.004079022798590973  0.9995808354504427  1.0000
  Si  Si2       1.0  0.005558205787835188  0.0004332248576373104  0.9990070659517136  1.0000
