data_image0
_chemical_formula_structural       HTi4Sb4Ti4Sb4Ti4Sb4Ti4Sb4
_chemical_formula_sum              "H1 Ti16 Sb16"
_cell_length_a       8.160375299839144
_cell_length_b       7.478029681542886
_cell_length_c       114.86817932128906
_cell_angle_alpha    66.13454677074836
_cell_angle_beta     105.83164654273713
_cell_angle_gamma    74.1683522285625

_space_group_name_H-M_alt    "P 1"
_space_group_IT_number       1

loop_
  _space_group_symop_operation_xyz
  'x, y, z'

loop_
  _atom_site_type_symbol
  _atom_site_label
  _atom_site_symmetry_multiplicity
  _atom_site_fract_x
  _atom_site_fract_y
  _atom_site_fract_z
  _atom_site_occupancy
  H   H1        1.0  0.005886454604865307  0.009117875667033282  0.0001699171632737706  1.0000
  Ti  Ti1       1.0  4.004430101838019e-05  0.00020833333787197917  0.9994130728567351  1.0000
  Ti  Ti2       1.0  4.0044289987838604e-05  0.005208333333333333  0.9990875680554658  1.0000
  Ti  Ti3       1.0  4.004436330167576e-05  0.002708333127581388  0.9989248154126484  1.0000
  Ti  Ti4       1.0  4.0044212839288706e-05  0.007708333236508888  0.9992503201872824  1.0000
  Sb  Sb1       1.0  0.0033733775779978027  0.009791666085719998  0.9989519406819571  1.0000
  Sb  Sb2       1.0  0.0033733776175023625  0.0047916665819452775  0.9992774454708275  1.0000
  Sb  Sb3       1.0  0.0017067110131750126  0.0006250000136159376  0.9992231949356164  1.0000
  Sb  Sb4       1.0  0.001706710991854233  0.005624999782144999  0.998897690140125  1.0000
  Ti  Ti5       1.0  0.009819013460317152  0.00057402201906727  3.027589223400271e-05  1.0000
  Ti  Ti6       1.0  4.0044289987838604e-05  0.005208333333333333  0.99973857763706  1.0000
  Ti  Ti7       1.0  4.004436330167576e-05  0.002708333127581388  0.9995758249942426  1.0000
  Ti  Ti8       1.0  0.009959955655929992  0.007846037567071262  0.999889592251922  1.0000
  Sb  Sb5       1.0  0.0033733775779978027  0.009791666085719998  0.9996029507824473  1.0000
  Sb  Sb6       1.0  0.0033952088384108844  0.004842540263283481  0.999938253391067  1.0000
  Sb  Sb7       1.0  0.001703104100396115  0.0006237569163395356  0.9998730045082472  1.0000
  Sb  Sb8       1.0  0.001706710991854233  0.005624999782144999  0.9995486997217191  1.0000
  Ti  Ti9       1.0  0.005040044193364148  0.00020833333787197917  0.9994130728650266  1.0000
  Ti  Ti10      1.0  0.005040044441830723  0.005208333333333333  0.9990875680687866  1.0000
  Ti  Ti11      1.0  0.0050400441592628005  0.002708333127581388  0.998924815419072  1.0000
  Ti  Ti12      1.0  0.005040044364682172  0.007708333236508888  0.9992503202006032  1.0000
  Sb  Sb9       1.0  0.008373377729840687  0.009791666085719998  0.9989519406952779  1.0000
  Sb  Sb10      1.0  0.008373377769345247  0.0047916665819452775  0.9992774454841483  1.0000
  Sb  Sb11      1.0  0.006706711046390644  0.0006250000136159376  0.9992231949466381  1.0000
  Sb  Sb12      1.0  0.006706711380951623  0.005624999782144999  0.998897690158044  1.0000
  Ti  Ti13      1.0  0.004819013308474269  0.00057402201906727  3.027587891323396e-05  1.0000
  Ti  Ti14      1.0  0.005040044441830723  0.005208333333333333  0.9997385776503808  1.0000
  Ti  Ti15      1.0  0.0050400441592628005  0.002708333127581388  0.9995758250006661  1.0000
  Ti  Ti16      1.0  0.004959955978596119  0.007846037567071262  0.9998895922477976  1.0000
  Sb  Sb13      1.0  0.008373377729840687  0.009791666085719998  0.9996029502768721  1.0000
  Sb  Sb14      1.0  0.008395208515744755  0.004842540263283481  0.9999382533951914  1.0000
  Sb  Sb15      1.0  0.006703104252238999  0.0006237569163395356  0.999873004521568  1.0000
  Sb  Sb16      1.0  0.006706711380951623  0.005624999782144999  0.9995486997396381  1.0000
