data_image0
_chemical_formula_structural       COCa12In24Cu12
_chemical_formula_sum              "C1 O1 Ca12 In24 Cu12"
_cell_length_a       10.979975700378418
_cell_length_b       11.86474947376463
_cell_length_c       105.65744018554688
_cell_angle_alpha    80.11374263623634
_cell_angle_beta     90.0
_cell_angle_gamma    90.0

_space_group_name_H-M_alt    "P 1"
_space_group_IT_number       1

loop_
  _space_group_symop_operation_xyz
  'x, y, z'

loop_
  _atom_site_type_symbol
  _atom_site_label
  _atom_site_symmetry_multiplicity
  _atom_site_fract_x
  _atom_site_fract_y
  _atom_site_fract_z
  _atom_site_occupancy
  C   C1        1.0  0.0005350621190342784  0.0012701841801438325  4.750689113094318e-06  1.0000
  O   O1        1.0  0.0005350621190342784  0.0012701841801438325  0.00011832550502403837  1.0000
  Ca  Ca1       1.0  0.0007023143251628612  0.007658416581350334  0.9998228726138526  1.0000
  Ca  Ca2       1.0  0.0007673444919519003  0.0007764986037745501  0.9995378851585781  1.0000
  Ca  Ca3       1.0  0.0007673444919519003  0.004109832002975111  0.9992566503316818  1.0000
  Ca  Ca4       1.0  0.004399905323946424  0.007443165242819476  0.9993972676447538  1.0000
  Ca  Ca5       1.0  0.004399905323946424  0.0007764986037745501  0.9991160333037477  1.0000
  Ca  Ca6       1.0  0.0044801003481700664  0.004174011436257358  0.9996936220592942  1.0000
  Ca  Ca7       1.0  0.005687150003791255  0.009174011296023906  0.999693623370782  1.0000
  Ca  Ca8       1.0  0.0057673443494541425  0.0024431652236967328  0.9993972680287316  1.0000
  Ca  Ca9       1.0  0.0057673443494541425  0.005776498304184901  0.9991160332079801  1.0000
  Ca  Ca10      1.0  0.009399905351088854  0.005776498304184901  0.9995378853448762  1.0000
  Ca  Ca11      1.0  0.009399905351088854  0.009109832181454051  0.9992566505087626  1.0000
  Ca  Ca12      1.0  0.009464937935250583  0.0026583703489306116  0.9998228682475194  1.0000
  In  In1       1.0  0.003654351623147725  0.00810715406926272  0.999087457878174  1.0000
  In  In2       1.0  0.0037321150249071972  0.0014736548728157034  0.9996590376505547  1.0000
  In  In3       1.0  0.003654351623147725  0.004773820829418356  0.9993686924199324  1.0000
  In  In4       1.0  0.0015128983623907888  0.006779176416376233  0.9992852255565031  1.0000
  In  In5       1.0  0.0016051861874626467  0.0003908382823333672  0.9998538293654825  1.0000
  In  In6       1.0  0.0015905291055227334  0.0035013367409688434  0.999568175006562  1.0000
  In  In7       1.0  0.0015128983623907888  0.00810715406926272  0.9995093097330046  1.0000
  In  In8       1.0  0.0015128983623907888  0.0014404875895739906  0.9992280751068603  1.0000
  In  In9       1.0  0.0016339503778508564  0.004887539323499953  0.9998093676209688  1.0000
  In  In10      1.0  0.0035163652758552497  0.006907270114229785  0.9997234516967111  1.0000
  In  In11      1.0  0.003654351623147725  0.00011250969765320797  0.9994258430718637  1.0000
  In  In12      1.0  0.003654351623147725  0.0034458428578194745  0.9991446085316414  1.0000
  In  In13      1.0  0.00853331066144235  0.009887490420270378  0.9998093676160906  1.0000
  In  In14      1.0  0.008654351650290156  0.003107154209496173  0.9995093101139099  1.0000
  In  In15      1.0  0.008654351650290156  0.006440487768052931  0.9992280752839412  1.0000
  In  In16      1.0  0.006512898728813597  0.00511250979645405  0.9994258432504807  1.0000
  In  In17      1.0  0.006512898728813597  0.008445842717586022  0.9991446084328016  1.0000
  In  In18      1.0  0.006650863022881546  0.0019072728041623819  0.9997234520284579  1.0000
  In  In19      1.0  0.006435107166782808  0.006473666365584593  0.9996590370453632  1.0000
  In  In20      1.0  0.006512898728813597  0.009773821007897296  0.9993686925970132  1.0000
  In  In21      1.0  0.006512898728813597  0.003107154209496173  0.9990874579770139  1.0000
  In  In22      1.0  0.008576708014503873  0.008501336282022999  0.9995681785807189  1.0000
  In  In23      1.0  0.008654351650290156  0.0017791763972534887  0.999285225940481  1.0000
  In  In24      1.0  0.008562095208653198  0.005390815513520015  0.9998537983936508  1.0000
  Cu  Cu1       1.0  0.002817840585276782  0.009175734255220233  0.9996847479614657  1.0000
  Cu  Cu2       1.0  0.0029349849389911998  0.0024431652236967328  0.9993972680287316  1.0000
  Cu  Cu3       1.0  0.0029349849389911998  0.005776498304184901  0.9991160332079801  1.0000
  Cu  Cu4       1.0  0.002232265216187502  0.005776498304184901  0.9995378853448762  1.0000
  Cu  Cu5       1.0  0.002232265216187502  0.009109832181454051  0.9992566505087626  1.0000
  Cu  Cu6       1.0  0.0022192370193390466  0.002612270035495076  0.9998115983519263  1.0000
  Cu  Cu7       1.0  0.007948023511033594  0.007612250453805653  0.9998116000382485  1.0000
  Cu  Cu8       1.0  0.00793498496613363  0.0007764986037745501  0.9995378851585781  1.0000
  Cu  Cu9       1.0  0.00793498496613363  0.004109832002975111  0.9992566503316818  1.0000
  Cu  Cu10      1.0  0.0072322654129701215  0.007443165242819476  0.9993972676447538  1.0000
  Cu  Cu11      1.0  0.0072322654129701215  0.0007764986037745501  0.9991160333037477  1.0000
  Cu  Cu12      1.0  0.007349397213310579  0.004175707304900285  0.9996847358896667  1.0000
