data_image0
_chemical_formula_structural       HTi16As16Rh16
_chemical_formula_sum              "H1 Ti16 As16 Rh16"
_cell_length_a       7.484846748837779
_cell_length_b       10.757825204434
_cell_length_c       112.3410873413086
_cell_angle_alpha    76.71274468179145
_cell_angle_beta     70.71250927084228
_cell_angle_gamma    68.23823781128864

_space_group_name_H-M_alt    "P 1"
_space_group_IT_number       1

loop_
  _space_group_symop_operation_xyz
  'x, y, z'

loop_
  _atom_site_type_symbol
  _atom_site_label
  _atom_site_symmetry_multiplicity
  _atom_site_fract_x
  _atom_site_fract_y
  _atom_site_fract_z
  _atom_site_occupancy
  H   H1        1.0  0.00026493672313376577  0.005490351746057286  0.9998029411961955  1.0000
  Ti  Ti1       1.0  0.0027498685988966336  0.008843475143824097  0.9995336519039083  1.0000
  Ti  Ti2       1.0  0.0009348134392998944  0.006862187273896075  0.9997450701779256  1.0000
  Ti  Ti3       1.0  0.0051990947200544835  0.0013808871610550978  0.9993039392293136  1.0000
  Ti  Ti4       1.0  0.007699095045755271  0.00388088731884396  0.999068378201714  1.0000
  Ti  Ti5       1.0  0.0028004286676718486  0.005970199322256864  0.9994716546582549  1.0000
  Ti  Ti6       1.0  0.00035862244882025116  0.003761513657915382  0.999684486108825  1.0000
  Ti  Ti7       1.0  0.005300428555413881  0.008470199292201842  0.9992360936444278  1.0000
  Ti  Ti8       1.0  0.0078004280484964515  0.0009701993823669065  0.9990005329974266  1.0000
  Ti  Ti9       1.0  0.005942090377782561  0.008188420693502547  0.9997063564481925  1.0000
  Ti  Ti10      1.0  0.0032644605909850012  0.005815521906167358  0.9990151073289875  1.0000
  Ti  Ti11      1.0  0.008264459971809605  0.0008155219662774005  0.9994862292054271  1.0000
  Ti  Ti12      1.0  0.0007644604395894275  0.0033155219362223792  0.9992506683486169  1.0000
  Ti  Ti13      1.0  0.009735063188880807  0.006535564329190678  0.9992893650520587  1.0000
  Ti  Ti14      1.0  0.007193573079911184  0.0038983966229168146  0.9995437346720261  1.0000
  Ti  Ti15      1.0  0.0022350630356137765  0.009035565050511191  0.999053804192379  1.0000
  Ti  Ti16      1.0  0.005555086764163221  0.0015983450085269703  0.999712613068063  1.0000
  As  As1       1.0  0.0008847928184650549  0.004286975364355822  0.9994450756567365  1.0000
  As  As2       1.0  0.008854328993227292  0.0018035755340873475  0.9997209702016935  1.0000
  As  As3       1.0  0.0033847927062070873  0.0067869753343008  0.9992095146429093  1.0000
  As  As4       1.0  0.005884793121256203  0.009286975304245779  0.9989739536174777  1.0000
  As  As5       1.0  0.004478433288123169  0.0005637732648256372  0.9995722133692351  1.0000
  As  As6       1.0  0.0021147303930846087  0.008064111622377747  0.9988593963594932  1.0000
  As  As7       1.0  0.007114730390564621  0.003064111494643907  0.9993305182264961  1.0000
  As  As8       1.0  0.009614730367654983  0.005564111276745002  0.9990949572148369  1.0000
  As  As9       1.0  0.00585411959223182  0.006817647986356848  0.9994479658453272  1.0000
  As  As10      1.0  0.0034400699480540945  0.004253130404794493  0.9997108974160038  1.0000
  As  As11      1.0  0.008354119479973852  0.009317647956301826  0.9992124048315001  1.0000
  As  As12      1.0  0.0008541198592261974  0.001817648234310774  0.9989768438000761  1.0000
  As  As13      1.0  0.009630473761024445  0.008016629948246696  0.99955616991499  1.0000
  As  As14      1.0  0.007145402954323167  0.005533438624688955  0.998856506554592  1.0000
  As  As15      1.0  0.0021454035988522162  0.0005334383560722011  0.9993276285802379  1.0000
  As  As16      1.0  0.004645403683236545  0.0030334384669000927  0.9990920675589826  1.0000
  Rh  Rh1       1.0  0.006635630027532054  0.005509692152306922  0.9992751201463467  1.0000
  Rh  Rh2       1.0  0.004077788767995964  0.003069509940013063  0.9995191696320943  1.0000
  Rh  Rh3       1.0  0.00913562973657743  0.00800969249793967  0.9990395591281837  1.0000
  Rh  Rh4       1.0  0.0023167858298190733  0.009125398758001488  0.999748173971131  1.0000
  Rh  Rh5       1.0  0.008644989434587368  0.009466561570668684  0.9997217803096291  1.0000
  Rh  Rh6       1.0  0.006363893573637099  0.00684139445873888  0.9990293516997951  1.0000
  Rh  Rh7       1.0  0.0013638935344994917  0.0018413945188489225  0.9995004737332517  1.0000
  Rh  Rh8       1.0  0.0038638936858950653  0.004341394488793901  0.9992649127136223  1.0000
  Rh  Rh9       1.0  0.008525767721171213  0.005997590341667407  0.9995926225229037  1.0000
  Rh  Rh10      1.0  0.0060239443871966765  0.0036213776125387435  0.9988616339763451  1.0000
  Rh  Rh11      1.0  0.00102394447906499  0.008621377552428701  0.9993327561793465  1.0000
  Rh  Rh12      1.0  0.0035239442804752656  0.001121377548671823  0.9990971949970585  1.0000
  Rh  Rh13      1.0  0.006975578507968738  0.008729709374194827  0.9994428378770652  1.0000
  Rh  Rh14      1.0  0.004402670657546659  0.006435825238033365  0.9996807535851809  1.0000
  Rh  Rh15      1.0  0.009475579279036294  0.0012297089947501812  0.999207277212275  1.0000
  Rh  Rh16      1.0  0.001975578911181328  0.003729709058617102  0.9989717163717875  1.0000
