data_image0
_chemical_formula_structural       COMn2Sb2Mn2Sb2Mn2Sb2Mn2Sb2Mn2Sb2Mn2Sb2
_chemical_formula_sum              "C1 O1 Mn12 Sb12"
_cell_length_a       5.380401611328125
_cell_length_b       7.863198908060225
_cell_length_c       105.38439178466797
_cell_angle_alpha    60.00000063477404
_cell_angle_beta     90.0
_cell_angle_gamma    90.0

_space_group_name_H-M_alt    "P 1"
_space_group_IT_number       1

loop_
  _space_group_symop_operation_xyz
  'x, y, z'

loop_
  _atom_site_type_symbol
  _atom_site_label
  _atom_site_symmetry_multiplicity
  _atom_site_fract_x
  _atom_site_fract_y
  _atom_site_fract_z
  _atom_site_occupancy
  C   C1        1.0  0.0038852822661944145  0.009624496684029782  0.9998765411563811  1.0000
  O   O1        1.0  0.0038852822661944145  0.009624496684029782  0.9999904096762904  1.0000
  Mn  Mn1       1.0  0.0011155818777905742  0.009965990788555371  0.9994526337157152  1.0000
  Mn  Mn2       1.0  0.006647689367989777  0.009966120987415552  0.9994525915292374  1.0000
  Sb  Sb1       1.0  0.0038852822661944145  0.0033962432854150178  0.9996867597097993  1.0000
  Sb  Sb2       1.0  0.008875200984488883  0.001484343730391395  0.9995989703109496  1.0000
  Mn  Mn3       1.0  0.0013844181048998894  3.387950083017419e-05  0.9990694089550834  1.0000
  Mn  Mn4       1.0  0.0063844182433761805  3.387950083017419e-05  0.9990694089550834  1.0000
  Sb  Sb3       1.0  0.003884418174138035  0.003367212768972902  0.9993181238463943  1.0000
  Sb  Sb4       1.0  0.008884417966423598  0.0017005461861878536  0.9991937666816219  1.0000
  Mn  Mn5       1.0  0.0013844181048998894  3.387950083017419e-05  0.9986963366443891  1.0000
  Mn  Mn6       1.0  0.0063844182433761805  3.387950083017419e-05  0.9986963366443891  1.0000
  Sb  Sb5       1.0  0.003884418174138035  0.003367212768972902  0.9989450515356999  1.0000
  Sb  Sb6       1.0  0.008884417966423598  0.0017005461861878536  0.9988206940881311  1.0000
  Mn  Mn7       1.0  0.0011155818777905742  0.004965990766673209  0.9994526334111116  1.0000
  Mn  Mn8       1.0  0.006647689367989777  0.004966120418479355  0.9994525912450427  1.0000
  Sb  Sb7       1.0  0.0038852822661944145  0.008396243307297178  0.9996867594488102  1.0000
  Sb  Sb8       1.0  0.008875200984488883  0.006484343615510048  0.9995989706206555  1.0000
  Mn  Mn9       1.0  0.0013844181048998894  0.005033879625284967  0.9990694092558604  1.0000
  Mn  Mn10      1.0  0.0063844182433761805  0.005033879625284967  0.9990694092558604  1.0000
  Sb  Sb9       1.0  0.003884418174138035  0.008367212790855063  0.9993181235854053  1.0000
  Sb  Sb10      1.0  0.008884417966423598  0.006700545934542998  0.9991937664308373  1.0000
  Mn  Mn11      1.0  0.0013844181048998894  0.005033879625284967  0.9986963366623697  1.0000
  Mn  Mn12      1.0  0.0063844182433761805  0.005033879625284967  0.9986963366623697  1.0000
  Sb  Sb11      1.0  0.003884418174138035  0.008367212790855063  0.9989450512747109  1.0000
  Sb  Sb12      1.0  0.008884417966423598  0.006700545934542998  0.998820694120143  1.0000
