data_image0
_chemical_formula_structural       Sb8Os4Sb8Os4H
_chemical_formula_sum              "Sb16 Os8 H1"
_cell_length_a       6.538243293762207
_cell_length_b       9.091994300732892
_cell_length_c       33.632022857666016
_cell_angle_alpha    96.7009992037292
_cell_angle_beta     90.0
_cell_angle_gamma    90.0

_space_group_name_H-M_alt    "P 1"
_space_group_IT_number       1

loop_
  _space_group_symop_operation_xyz
  'x, y, z'

loop_
  _atom_site_type_symbol
  _atom_site_label
  _atom_site_symmetry_multiplicity
  _atom_site_fract_x
  _atom_site_fract_y
  _atom_site_fract_z
  _atom_site_occupancy
  Sb  Sb1       1.0  0.003749999601161491  0.002313784582493841  0.998261060635564  1.0000
  Sb  Sb2       1.0  0.00375000017093079  0.007280939177235638  0.9995473582682104  1.0000
  Sb  Sb3       1.0  0.003749999601161491  0.007708879485271139  0.9977858721771068  1.0000
  Sb  Sb4       1.0  0.003749999601161491  0.0027088792047362423  0.9991375594361551  1.0000
  Sb  Sb5       1.0  0.0012500006267462292  0.004137969761955381  0.0001408988113674127  1.0000
  Sb  Sb6       1.0  0.0012499996296499558  0.009132452168602081  0.9987527143837175  1.0000
  Sb  Sb7       1.0  0.0012499996296499558  0.005890211767146478  0.9986459053205123  1.0000
  Sb  Sb8       1.0  0.0012499997720922804  0.0009025509996930355  2.84711052398902e-05  1.0000
  Os  Os1       1.0  0.003749999601161491  0.005011331827606831  0.9980234662890622  1.0000
  Os  Os2       1.0  0.003749999601161491  0.009988668601446541  0.999381117248359  1.0000
  Os  Os3       1.0  0.0012500006267462292  0.005051978446286056  0.9993992954962709  1.0000
  Os  Os4       1.0  0.0012499996296499558  1.1331800081922296e-05  0.9980234662527487  1.0000
  Sb  Sb9       1.0  0.008749999544184562  0.002313784582493841  0.998261060635564  1.0000
  Sb  Sb10      1.0  0.008750000113953861  0.007280939177235638  0.9995473582682104  1.0000
  Sb  Sb11      1.0  0.008749999544184562  0.007708879485271139  0.9977858721771068  1.0000
  Sb  Sb12      1.0  0.008749999544184562  0.0027088792047362423  0.9991375594361551  1.0000
  Sb  Sb13      1.0  0.0062500005697693  0.004137969761955381  0.0001408988113674127  1.0000
  Sb  Sb14      1.0  0.006249999430230702  0.009132452168602081  0.9987527143837175  1.0000
  Sb  Sb15      1.0  0.006249999430230702  0.005890211767146478  0.9986459053205123  1.0000
  Sb  Sb16      1.0  0.006249999430230702  0.0009025509996930355  2.84711052398902e-05  1.0000
  Os  Os5       1.0  0.008749999544184562  0.005011331827606831  0.9980234662890622  1.0000
  Os  Os6       1.0  0.008749999544184562  0.009988668601446541  0.999381117248359  1.0000
  Os  Os7       1.0  0.0062500005697693  0.005051978446286056  0.9993992954962709  1.0000
  Os  Os8       1.0  0.006249999430230702  1.1331800081922296e-05  0.9980234662527487  1.0000
  H   H1        1.0  0.002499999544184561  0.001805715050645724  2.9018789570502366e-05  1.0000
