data_image0
_chemical_formula_structural       COZn2In4Se8
_chemical_formula_sum              "C1 O1 Zn2 In4 Se8"
_cell_length_a       5.95994234085083
_cell_length_b       5.95994234085083
_cell_length_c       105.01312255859375
_cell_angle_alpha    90.0
_cell_angle_beta     90.0
_cell_angle_gamma    90.0

_space_group_name_H-M_alt    "P 1"
_space_group_IT_number       1

loop_
  _space_group_symop_operation_xyz
  'x, y, z'

loop_
  _atom_site_type_symbol
  _atom_site_label
  _atom_site_symmetry_multiplicity
  _atom_site_fract_x
  _atom_site_fract_y
  _atom_site_fract_z
  _atom_site_occupancy
  C   C1        1.0  0.007477696296195547  0.006205958641977038  0.00016493666032658445  1.0000
  O   O1        1.0  0.007477696296195547  0.006205958641977038  0.0002792083249178308  1.0000
  Zn  Zn1       1.0  0.002458413169493648  0.0012113839297322447  0.9997017778990256  1.0000
  Zn  Zn2       1.0  0.007466245293087675  0.006202230815419431  0.9991459139957738  1.0000
  In  In1       1.0  0.0024662455743623144  0.006202230815419431  0.999423761518038  1.0000
  In  In2       1.0  0.007466245293087675  0.0012022308622985374  0.999423761518038  1.0000
  In  In3       1.0  0.007477696296195547  0.0012059587669879881  0.0  1.0000
  In  In4       1.0  0.002476732274247224  0.006204894798784374  0.9999993909734108  1.0000
  Se  Se1       1.0  6.178380093283672e-05  0.0036066928212911452  0.9992678649010337  1.0000
  Se  Se2       1.0  0.005061783724754289  0.003797769247086045  0.9995796575674499  1.0000
  Se  Se3       1.0  0.004870707298959389  0.008797768809547716  0.9992678649010337  1.0000
  Se  Se4       1.0  0.009870707173948438  0.008606692696280194  0.9995796575674499  1.0000
  Se  Se5       1.0  0.004993409922709229  0.008689910611169539  0.9998316350818931  1.0000
  Se  Se6       1.0  6.178380093283672e-05  0.008797768809547716  0.9990239633743102  1.0000
  Se  Se7       1.0  0.009938216212740237  0.003749280937010082  0.9998314426680872  1.0000
  Se  Se8       1.0  0.004870707298959389  0.0036066928212911452  0.9990239633743102  1.0000
