data_image0
_chemical_formula_structural       COAg10Au30
_chemical_formula_sum              "C1 O1 Ag10 Au30"
_cell_length_a       15.626971673005286
_cell_length_b       7.671714257780199
_cell_length_c       100.68685913085938
_cell_angle_alpha    83.63367771670728
_cell_angle_beta     81.63393307099369
_cell_angle_gamma    54.40947948164537

_space_group_name_H-M_alt    "P 1"
_space_group_IT_number       1

loop_
  _space_group_symop_operation_xyz
  'x, y, z'

loop_
  _atom_site_type_symbol
  _atom_site_label
  _atom_site_symmetry_multiplicity
  _atom_site_fract_x
  _atom_site_fract_y
  _atom_site_fract_z
  _atom_site_occupancy
  C   C1        1.0  0.0038194520506424517  0.008611139892326487  0.9998502462020207  1.0000
  O   O1        1.0  0.0038194520506424517  0.008611139892326487  0.9999694278352773  1.0000
  Ag  Ag1       1.0  0.004462917020243554  0.009770349345292912  0.999617304980668  1.0000
  Ag  Ag2       1.0  0.008494213155844954  0.007667129371105861  0.9997434087961428  1.0000
  Ag  Ag3       1.0  0.00047111351629752757  0.0018385753844220826  0.9994501572515635  1.0000
  Ag  Ag4       1.0  0.0024711134427972308  0.005838575035510587  0.9991453821122924  1.0000
  Ag  Ag5       1.0  0.006471113674718946  0.003838575209966335  0.9992977696538414  1.0000
  Ag  Ag6       1.0  0.0034605453484931343  0.006222402773565349  0.9994923330141463  1.0000
  Ag  Ag7       1.0  0.007477826009435337  0.004286613118598096  0.9996572832164735  1.0000
  Ag  Ag8       1.0  0.009471113411956137  0.008171908712975807  0.9993485655531467  1.0000
  Ag  Ag9       1.0  0.0014711134542033332  0.0021719087882546566  0.9990437903484799  1.0000
  Ag  Ag10      1.0  0.005471113492860616  0.0001719087946772567  0.9991961781918031  1.0000
  Au  Au1       1.0  0.0055150521519980455  0.0051785372475352896  0.9995821244775005  1.0000
  Au  Au2       1.0  0.009528886475817842  0.003131386275270943  0.999713505136568  1.0000
  Au  Au3       1.0  0.001471113732738649  0.00717722536898968  0.9994243545243139  1.0000
  Au  Au4       1.0  0.0034711135205581604  0.001177225593631327  0.9991195792767722  1.0000
  Au  Au5       1.0  0.007471113926857464  0.009177225493259528  0.9992719669232619  1.0000
  Au  Au6       1.0  0.006467923604755226  0.007170845187720885  0.9994248403676288  1.0000
  Au  Au7       1.0  0.0005055844305452959  0.005228936437655309  0.9995830076526951  1.0000
  Au  Au8       1.0  0.0024679232880546326  0.009170845311990734  0.9992724528254704  1.0000
  Au  Au9       1.0  0.004512942705798826  0.0031290983359349707  0.9997158356950002  1.0000
  Au  Au10      1.0  0.00846792363352729  0.0011708454123625328  0.9991200654106361  1.0000
  Au  Au11      1.0  0.004474303880104172  0.008167655457947008  0.9993488899813356  1.0000
  Au  Au12      1.0  0.008441600866887462  0.006274533974688106  0.9994972213517667  1.0000
  Au  Au13      1.0  0.000474303608224524  0.0001676552969339111  0.9991965020380287  1.0000
  Au  Au14      1.0  0.0024821212970056973  0.004276177139919131  0.9996531625204135  1.0000
  Au  Au15      1.0  0.0064743035541394486  0.0021676552345002618  0.999044114444159  1.0000
  Au  Au16      1.0  0.0024383033363331356  0.0010146951956731994  0.9995375051191252  1.0000
  Au  Au17      1.0  0.006450743477600744  0.008961463165040606  0.9996737726657401  1.0000
  Au  Au18      1.0  0.00847111364172272  0.002833258429682614  0.9993743688648244  1.0000
  Au  Au19      1.0  0.0004711135750055158  0.0068332583794967145  0.9990695934742445  1.0000
  Au  Au20      1.0  0.00447111380692723  0.004833258553952462  0.9992219810157935  1.0000
  Au  Au21      1.0  0.0014214163401782129  0.008892159424334653  0.999679147761697  1.0000
  Au  Au22      1.0  0.0054743037319032435  0.006839638560765509  0.9990691072869281  1.0000
  Au  Au23      1.0  0.007466650531895506  0.0009898964156809583  0.9995368021752197  1.0000
  Au  Au24      1.0  0.009474303963824959  0.0048396387352212565  0.9992214948284771  1.0000
  Au  Au25      1.0  0.0034743034439747135  0.002839638909677004  0.9993738824343609  1.0000
  Au  Au26      1.0  0.0034504540270916843  0.007632899002568142  0.9997352553386983  1.0000
  Au  Au27      1.0  0.007467923286996542  0.005842828887990577  0.9991450582639828  1.0000
  Au  Au28      1.0  0.009455438976834617  0.009832344465579242  0.9996163012331049  1.0000
  Au  Au29      1.0  0.00146792357478283  0.00384282876372073  0.9992974458541526  1.0000
  Au  Au30      1.0  0.005467923565751993  0.0018428289381764774  0.9994498334011427  1.0000
