data_image0
_chemical_formula_structural       HMn12Ti6W6
_chemical_formula_sum              "H1 Mn12 Ti6 W6"
_cell_length_a       5.975064277648926
_cell_length_b       7.317929297277467
_cell_length_c       102.17670440673828
_cell_angle_alpha    94.34775345726838
_cell_angle_beta     90.0
_cell_angle_gamma    114.09484266768747

_space_group_name_H-M_alt    "P 1"
_space_group_IT_number       1

loop_
  _space_group_symop_operation_xyz
  'x, y, z'

loop_
  _atom_site_type_symbol
  _atom_site_label
  _atom_site_symmetry_multiplicity
  _atom_site_fract_x
  _atom_site_fract_y
  _atom_site_fract_z
  _atom_site_occupancy
  H   H1        1.0  0.008900207342870675  0.0031350229329163894  0.00011578027767347099  1.0000
  Mn  Mn1       1.0  0.0047244978861158545  0.0046434370125799495  0.9999500255905898  1.0000
  Mn  Mn2       1.0  0.0005895346248023631  0.006480241845401677  0.9997001231494421  1.0000
  Mn  Mn3       1.0  0.00642286810526501  0.008146908519529464  0.9994376958841173  1.0000
  Mn  Mn4       1.0  0.004339534918473486  0.003980241834209997  0.9993064825138402  1.0000
  Mn  Mn5       1.0  0.0026397832661528647  0.0006030915895894168  0.9998349439907113  1.0000
  Mn  Mn6       1.0  0.008506201880676557  0.0023135751600822105  0.9995689094874908  1.0000
  Mn  Mn7       1.0  0.00933953521774045  0.003980241834209997  0.9993064825138402  1.0000
  Mn  Mn8       1.0  0.007661921985644414  0.0006032624026064187  0.9998349315011251  1.0000
  Mn  Mn9       1.0  0.0035062015814095937  0.0023135751600822105  0.9995689094874908  1.0000
  Mn  Mn10      1.0  0.009618798876971228  0.004643919094198778  0.9999500171244385  1.0000
  Mn  Mn11      1.0  0.0055895349240693264  0.006480241845401677  0.9997001231494421  1.0000
  Mn  Mn12      1.0  0.0014228679618662563  0.008146908519529464  0.9994376958841173  1.0000
  Ti  Ti1       1.0  0.006620357244497313  0.0035423332170174565  0.9997613283172663  1.0000
  Ti  Ti2       1.0  0.002464534861069452  0.005230241979701838  0.9995033025407264  1.0000
  Ti  Ti3       1.0  0.0008497252708789538  0.00199763459141307  2.233408953361592e-05  1.0000
  Ti  Ti4       1.0  0.009547868031880201  0.009396908385229304  0.9996345162011586  1.0000
  Ti  Ti5       1.0  0.005381201693271154  0.00106357508453837  0.99937208916931  1.0000
  Ti  Ti6       1.0  0.0037022806266725603  0.0077054331139000025  0.9999104445428163  1.0000
  W   W1        1.0  0.0016364092766458602  0.003574913316856554  0.9997657012386812  1.0000
  W   W2        1.0  0.007464534829116468  0.005230241979701838  0.9995033025407264  1.0000
  W   W3        1.0  0.005908003043651335  0.002115324200543375  1.1485202654978166e-05  1.0000
  W   W4        1.0  0.004547868015124369  0.009396908385229304  0.9996345162011586  1.0000
  W   W5        1.0  0.0003812014621965332  0.00106357508453837  0.99937208916931  1.0000
  W   W6        1.0  0.00866079397496628  0.007623878781677648  0.9998930764632901  1.0000
