data_image0
_chemical_formula_structural       HGa4Rh8Zn4Ga4Rh8Zn4
_chemical_formula_sum              "H1 Ga8 Rh16 Zn8"
_cell_length_a       8.603063583374023
_cell_length_b       6.083284854888916
_cell_length_c       104.4122543334961
_cell_angle_alpha    90.0
_cell_angle_beta     90.0
_cell_angle_gamma    90.0

_space_group_name_H-M_alt    "P 1"
_space_group_IT_number       1

loop_
  _space_group_symop_operation_xyz
  'x, y, z'

loop_
  _atom_site_type_symbol
  _atom_site_label
  _atom_site_symmetry_multiplicity
  _atom_site_fract_x
  _atom_site_fract_y
  _atom_site_fract_z
  _atom_site_occupancy
  H   H1        1.0  0.0050000002251698985  1.973999975661821e-07  9.506281747507932e-05  1.0000
  Ga  Ga1       1.0  0.009999999584301726  0.004999961285249945  0.9997797010570951  1.0000
  Ga  Ga2       1.0  0.0  0.005000022829577381  0.9993689302534328  1.0000
  Ga  Ga3       1.0  0.0025000001125849492  3.559999785223167e-08  0.999988751799986  1.0000
  Ga  Ga4       1.0  0.0025000001125849492  2.2999998454910377e-08  0.9995749180539173  1.0000
  Rh  Rh1       1.0  0.0025000001125849492  0.007500022609120089  0.9993689302534328  1.0000
  Rh  Rh2       1.0  0.0024999998960754314  0.007483200492954263  0.99977961485743  1.0000
  Rh  Rh3       1.0  0.0  0.007500022609120089  0.9995749180539173  1.0000
  Rh  Rh4       1.0  0.0  0.0075130687817737745  0.9999770765976572  1.0000
  Rh  Rh5       1.0  0.010000000450339797  0.002487325934760475  0.999977051479874  1.0000
  Rh  Rh6       1.0  0.0  0.0025000228969393316  0.9995749180539173  1.0000
  Rh  Rh7       1.0  0.0025000001125849492  0.0025000228969393316  0.9993689302534328  1.0000
  Rh  Rh8       1.0  0.0024999998960754314  0.0025167266704058835  0.9997796131448539  1.0000
  Zn  Zn1       1.0  0.009999999584301726  0.009999976460060232  0.9997783315670509  1.0000
  Zn  Zn2       1.0  0.0  2.2999998454910377e-08  0.9993689302534328  1.0000
  Zn  Zn3       1.0  0.0025000001125849492  0.005000014256238236  0.0  1.0000
  Zn  Zn4       1.0  0.0025000001125849492  0.005000022829577381  0.9995749180539173  1.0000
  Ga  Ga5       1.0  0.004999999792150863  0.004999961285249945  0.9997797010570951  1.0000
  Ga  Ga6       1.0  0.0050000002251698985  0.005000022829577381  0.9993689302534328  1.0000
  Ga  Ga7       1.0  0.007499999688226294  3.559999785223167e-08  0.999988751799986  1.0000
  Ga  Ga8       1.0  0.007499999688226294  2.2999998454910377e-08  0.9995749180539173  1.0000
  Rh  Rh9       1.0  0.007499999688226294  0.007500022609120089  0.9993689302534328  1.0000
  Rh  Rh10      1.0  0.007499999688226294  0.007483200492954263  0.99977961485743  1.0000
  Rh  Rh11      1.0  0.0050000002251698985  0.007500022609120089  0.9995749180539173  1.0000
  Rh  Rh12      1.0  0.0050000002251698985  0.0075130687817737745  0.9999770765976572  1.0000
  Rh  Rh13      1.0  0.0050000002251698985  0.002487325934760475  0.999977051479874  1.0000
  Rh  Rh14      1.0  0.0050000002251698985  0.0025000228969393316  0.9995749180539173  1.0000
  Rh  Rh15      1.0  0.007499999688226294  0.0025000228969393316  0.9993689302534328  1.0000
  Rh  Rh16      1.0  0.007499999688226294  0.0025167266704058835  0.9997796131448539  1.0000
  Zn  Zn5       1.0  0.004999999792150863  0.009999976460060232  0.9997783315670509  1.0000
  Zn  Zn6       1.0  0.0050000002251698985  2.2999998454910377e-08  0.9993689302534328  1.0000
  Zn  Zn7       1.0  0.007499999688226294  0.005000014256238236  0.0  1.0000
  Zn  Zn8       1.0  0.007499999688226294  0.005000022829577381  0.9995749180539173  1.0000
