data_image0
_chemical_formula_structural       COFe4Ge8
_chemical_formula_sum              "C1 O1 Fe4 Ge8"
_cell_length_a       4.869953028611946
_cell_length_b       4.86995267868042
_cell_length_c       103.54952239990234
_cell_angle_alpha    90.0
_cell_angle_beta     90.0
_cell_angle_gamma    118.88869149168818

_space_group_name_H-M_alt    "P 1"
_space_group_IT_number       1

loop_
  _space_group_symop_operation_xyz
  'x, y, z'

loop_
  _atom_site_type_symbol
  _atom_site_label
  _atom_site_symmetry_multiplicity
  _atom_site_fract_x
  _atom_site_fract_y
  _atom_site_fract_z
  _atom_site_occupancy
  C   C1        1.0  0.00048295374882256683  0.005015241634468372  0.0001509054965270438  1.0000
  O   O1        1.0  0.00048295374882256683  0.005015241634468372  0.00026679173565142254  1.0000
  Fe  Fe1       1.0  0.0029837302529371946  0.007512591301088827  0.9999836600207126  1.0000
  Fe  Fe2       1.0  0.007977807886685945  0.0025113534619279443  0.9995964634692148  1.0000
  Fe  Fe3       1.0  0.0079821771311303  0.0025178920315453526  0.9999836151227528  1.0000
  Fe  Fe4       1.0  0.002977808271102572  0.007511353567323134  0.9995964634692148  1.0000
  Ge  Ge1       1.0  0.007977807886685945  0.007511353488701337  0.9992674684883555  1.0000
  Ge  Ge2       1.0  0.002977808271102572  0.0025113535405497395  0.9996724619003742  1.0000
  Ge  Ge3       1.0  0.009517046137599794  0.005982216851617334  0.999802085763963  1.0000
  Ge  Ge4       1.0  0.004539538389438031  0.0009496231252020586  0.999393966475398  1.0000
  Ge  Ge5       1.0  0.006449055036131808  0.009050376846796737  0.9998021669256596  1.0000
  Ge  Ge6       1.0  0.0014160778251393043  0.004073083988855803  0.999393966475398  1.0000
  Ge  Ge7       1.0  0.0029738286853309187  0.0025076480476067782  0.0  1.0000
  Ge  Ge8       1.0  0.007977807886685945  0.007511353488701337  0.999520464750248  1.0000
