data_image0
_chemical_formula_structural       COFe2As4Fe2As4Fe2As4
_chemical_formula_sum              "C1 O1 Fe6 As12"
_cell_length_a       6.029021263122559
_cell_length_b       6.083756598740953
_cell_length_c       101.96473693847656
_cell_angle_alpha    118.53180300917339
_cell_angle_beta     90.0
_cell_angle_gamma    90.0

_space_group_name_H-M_alt    "P 1"
_space_group_IT_number       1

loop_
  _space_group_symop_operation_xyz
  'x, y, z'

loop_
  _atom_site_type_symbol
  _atom_site_label
  _atom_site_symmetry_multiplicity
  _atom_site_fract_x
  _atom_site_fract_y
  _atom_site_fract_z
  _atom_site_occupancy
  C   C1        1.0  0.008195345911948442  0.007329019814503658  0.00020886915658309237  1.0000
  O   O1        1.0  0.008195345911948442  0.007329019814503658  0.0003265571404783054  1.0000
  Fe  Fe1       1.0  0.0006962981098444182  9.481544810155614e-05  0.9994797985611065  1.0000
  Fe  Fe2       1.0  0.005696297887402922  0.00509481538798697  0.999479798442481  1.0000
  As  As1       1.0  0.007088894107091758  0.00830324411846415  0.9994287407698023  1.0000
  As  As2       1.0  0.0043037016677140855  0.0018863866575097898  0.9995308564074404  1.0000
  As  As3       1.0  0.009303701445272589  0.003303244243920678  0.9994287405980091  1.0000
  As  As4       1.0  0.0020888944840065154  0.006886386880543618  0.9995308562968844  1.0000
  Fe  Fe3       1.0  0.0006962981098444182  9.481544810155614e-05  0.9997647877124894  1.0000
  Fe  Fe4       1.0  0.005696297887402922  0.00509481538798697  0.9997647878861446  1.0000
  As  As5       1.0  0.007088894107091758  0.00830324411846415  0.9997137299211852  1.0000
  As  As6       1.0  0.004259984190143702  0.0018421986031815151  0.9998127834597362  1.0000
  As  As7       1.0  0.009303701445272589  0.003303244243920678  0.9997137300416729  1.0000
  As  As8       1.0  0.0021324159350088034  0.0068416567494675295  0.9998127287349671  1.0000
  Fe  Fe5       1.0  0.0008199102392707272  0.009905184584133801  3.666666725951902e-05  1.0000
  Fe  Fe6       1.0  0.005572270688324546  0.004905809204307193  3.667903183988502e-05  1.0000
  As  As9       1.0  0.007100422755500058  0.008281074556015481  1.54835176005214e-05  1.0000
  As  As10      1.0  0.0042481567904488005  0.0018363969357449357  9.23339418750014e-05  1.0000
  As  As11      1.0  0.009290269686289869  0.0032812722755035167  1.55556170186385e-05  1.0000
  As  As12      1.0  0.0021424968600158465  0.00683651163786051  9.232627946419346e-05  1.0000
