data_image0
_chemical_formula_structural       HGa8As4Rh20Ga8As4Rh20
_chemical_formula_sum              "H1 Ga16 As8 Rh40"
_cell_length_a       10.31763744354248
_cell_length_b       6.870152618971342
_cell_length_c       111.22091674804688
_cell_angle_alpha    72.89421351769741
_cell_angle_beta     90.0
_cell_angle_gamma    90.0

_space_group_name_H-M_alt    "P 1"
_space_group_IT_number       1

loop_
  _space_group_symop_operation_xyz
  'x, y, z'

loop_
  _atom_site_type_symbol
  _atom_site_label
  _atom_site_symmetry_multiplicity
  _atom_site_fract_x
  _atom_site_fract_y
  _atom_site_fract_z
  _atom_site_occupancy
  H   H1        1.0  0.002248763782628653  0.008921172504900547  0.999919779929411  1.0000
  Ga  Ga1       1.0  0.007009036625458564  0.005609653363086033  0.9992559282523883  1.0000
  Ga  Ga2       1.0  0.007009036625458564  0.0006096530340288516  0.9989470767378202  1.0000
  Ga  Ga3       1.0  0.00402116613762749  0.004463128786517722  0.9991851071391245  1.0000
  Ga  Ga4       1.0  0.00402116613762749  0.009463129115574903  0.9988762555482897  1.0000
  Ga  Ga5       1.0  0.002009037008182588  0.006963129092881304  0.9987218297884287  1.0000
  Ga  Ga6       1.0  0.002009037008182588  0.001963128763824123  0.9990306813792634  1.0000
  Ga  Ga7       1.0  0.009021166296494066  0.00310965305672245  0.9991015024976813  1.0000
  Ga  Ga8       1.0  0.009021166296494066  0.008109653385779632  0.9987926509068465  1.0000
  As  As1       1.0  0.005515101562073227  0.005036390932966885  0.9989116658776759  1.0000
  As  As2       1.0  0.005515101562073227  3.639084990476835e-05  0.9992205174640412  1.0000
  As  As3       1.0  0.0005151016288694006  0.0025363909102732868  0.9987572401178149  1.0000
  As  As4       1.0  0.0005151016288694006  0.0075363909556604835  0.9990660916375369  1.0000
  Rh  Rh1       1.0  0.009484897831345302  0.005875710277869137  0.999272362493959  1.0000
  Rh  Rh2       1.0  0.009484897831345302  0.0008757101615644436  0.9989635109755255  1.0000
  Rh  Rh3       1.0  0.0015453049317407516  0.004197071588064634  0.9991686729027077  1.0000
  Rh  Rh4       1.0  0.0015453049317407516  0.00919707163345183  0.9988598207811148  1.0000
  Rh  Rh5       1.0  0.006545305090607328  0.0033757102551755383  0.9991179367340981  1.0000
  Rh  Rh6       1.0  0.006545305090607328  0.008375710300562736  0.9988090851484173  1.0000
  Rh  Rh7       1.0  0.004484898394599526  0.006697071610758232  0.9987053950212538  1.0000
  Rh  Rh8       1.0  0.004484898394599526  0.0016970715653710352  0.9990142466069345  1.0000
  Rh  Rh9       1.0  0.003269007640569537  0.0007237408465823403  0.9992629755906305  1.0000
  Rh  Rh10      1.0  0.003269007640569537  0.005723740891969538  0.9989541240049498  1.0000
  Rh  Rh11      1.0  0.007761195483576917  0.004349040973964233  0.9988692082863142  1.0000
  Rh  Rh12      1.0  0.007761195483576917  0.00934904101935143  0.9991780598060362  1.0000
  Rh  Rh13      1.0  0.002761195324710341  0.003223740869275939  0.9987996982450887  1.0000
  Rh  Rh14      1.0  0.002761195324710341  0.008223740914663135  0.9991085497648108  1.0000
  Rh  Rh15      1.0  0.008269007438375713  0.0018490409512706345  0.9987147822584971  1.0000
  Rh  Rh16      1.0  0.008269007438375713  0.006849040996657832  0.9990236340461752  1.0000
  Rh  Rh17      1.0  0.005515101562073227  0.0025363909102732868  0.9987572401178149  1.0000
  Rh  Rh18      1.0  0.005515101562073227  0.0075363909556604835  0.9990660916375369  1.0000
  Rh  Rh19      1.0  0.0005151016288694006  0.005036390932966885  0.9989116658776759  1.0000
  Rh  Rh20      1.0  0.0005151016288694006  3.639084990476835e-05  0.9992205174640412  1.0000
  Ga  Ga9       1.0  0.007130490844802307  0.005729200404483442  0.9998634093789814  1.0000
  Ga  Ga10      1.0  0.007009036625458564  0.0006096530340288516  0.999564779843223  1.0000
  Ga  Ga11      1.0  0.003997892184268221  0.004627543909299531  0.9998072100112386  1.0000
  Ga  Ga12      1.0  0.00402116613762749  0.009463129115574903  0.9994939586536925  1.0000
  Ga  Ga13      1.0  0.002009037008182588  0.006963129092881304  0.9993395328938315  1.0000
  Ga  Ga14      1.0  0.0020169956820411308  0.0019597946486660557  0.9996422740331341  1.0000
  Ga  Ga15      1.0  0.009029974726003106  0.0030065097994953376  0.9997459357488809  1.0000
  Ga  Ga16      1.0  0.009021166296494066  0.008109653385779632  0.9994103540122493  1.0000
  As  As5       1.0  0.005515101562073227  0.005036390932966885  0.9995293695189909  1.0000
  As  As6       1.0  0.00550504783524591  0.009899962168863177  0.9998336262992601  1.0000
  As  As7       1.0  0.0005151016288694006  0.0025363909102732868  0.9993749437591298  1.0000
  As  As8       1.0  0.0005991965224718909  0.007518026160890135  0.9996839644224835  1.0000
  Rh  Rh21      1.0  0.009477449155301217  0.005914208833430655  0.9998739699005645  1.0000
  Rh  Rh22      1.0  0.009484897831345302  0.0008757101615644436  0.9995812146168405  1.0000
  Rh  Rh23      1.0  0.001513156204024013  0.004061980566218723  0.9997873840404548  1.0000
  Rh  Rh24      1.0  0.0015453049317407516  0.00919707163345183  0.9994775244224298  1.0000
  Rh  Rh25      1.0  0.006477473395452206  0.003395478081687224  0.9997424184936655  1.0000
  Rh  Rh26      1.0  0.006545305090607328  0.008375710300562736  0.9994267887897322  1.0000
  Rh  Rh27      1.0  0.004484898394599526  0.006697071610758232  0.9993230986625687  1.0000
  Rh  Rh28      1.0  0.004505417457109722  0.0017051872217810182  0.9996268520386682  1.0000
  Rh  Rh29      1.0  0.003283285051951566  0.0009871858699868842  0.9998543115339351  1.0000
  Rh  Rh30      1.0  0.003269007640569537  0.005723740891969538  0.9995718271103525  1.0000
  Rh  Rh31      1.0  0.007761195483576917  0.004349040973964233  0.999486911391717  1.0000
  Rh  Rh32      1.0  0.007799324906018  0.009466275583038492  0.9997909742244803  1.0000
  Rh  Rh33      1.0  0.002761195324710341  0.003223740869275939  0.9994174013504915  1.0000
  Rh  Rh34      1.0  0.002845869043265966  0.008140355555498266  0.9997321066380476  1.0000
  Rh  Rh35      1.0  0.008269007438375713  0.0018490409512706345  0.999332485631856  1.0000
  Rh  Rh36      1.0  0.008284256463293109  0.006843105485910615  0.9996390446427709  1.0000
  Rh  Rh37      1.0  0.005515101562073227  0.0025363909102732868  0.9993749437591298  1.0000
  Rh  Rh38      1.0  0.005510580724809631  0.007561764668397867  0.9996897925434078  1.0000
  Rh  Rh39      1.0  0.0005151016288694006  0.005036390932966885  0.9995293695189909  1.0000
  Rh  Rh40      1.0  0.0006171370270056772  0.009963609770534674  0.9998189718701688  1.0000
