data_image0
_chemical_formula_structural       COAl12Sb12
_chemical_formula_sum              "C1 O1 Al12 Sb12"
_cell_length_a       8.521251317326914
_cell_length_b       10.580201851149448
_cell_length_c       99.97531127929688
_cell_angle_alpha    85.75952373614965
_cell_angle_beta     89.1506983786412
_cell_angle_gamma    74.92345515268048

_space_group_name_H-M_alt    "P 1"
_space_group_IT_number       1

loop_
  _space_group_symop_operation_xyz
  'x, y, z'

loop_
  _atom_site_type_symbol
  _atom_site_label
  _atom_site_symmetry_multiplicity
  _atom_site_fract_x
  _atom_site_fract_y
  _atom_site_fract_z
  _atom_site_occupancy
  C   C1        1.0  0.009814346096812344  0.007702969380512734  0.00012956709604354332  1.0000
  O   O1        1.0  0.009814346096812344  0.007702969380512734  0.0002495963768779534  1.0000
  Al  Al1       1.0  0.00018565407132146126  0.009274181579758466  0.9997279760099792  1.0000
  Al  Al2       1.0  0.0039316785811777865  0.005987185158095558  0.9995822422620076  1.0000
  Al  Al3       1.0  0.006682202313788411  0.002164580138918775  0.9998198083016685  1.0000
  Al  Al4       1.0  0.00909379499978887  0.005413479700932599  0.9997127276682872  1.0000
  Al  Al5       1.0  0.0009312443916138649  0.002507758445082854  0.9999093228432672  1.0000
  Al  Al6       1.0  0.004820004820505299  0.008775238088207118  0.9997765116805855  1.0000
  Al  Al7       1.0  0.0015507260755146515  0.009320518335432576  0.9992966925853021  1.0000
  Al  Al8       1.0  0.005360250079705131  0.005987185158095558  0.9991539178200629  1.0000
  Al  Al9       1.0  0.007741202148143795  0.002653851980758541  0.9994394674973209  1.0000
  Al  Al10      1.0  0.0005189798122375356  0.005431629994155754  0.9992728968179022  1.0000
  Al  Al11      1.0  0.0028999323767042264  0.0020982966340105536  0.999558446495964  1.0000
  Al  Al12      1.0  0.0067094561967333405  0.008764962805876405  0.9994156717241264  1.0000
  Sb  Sb1       1.0  0.007799127648079168  0.008069657733007251  0.9996714396851286  1.0000
  Sb  Sb2       1.0  0.000347523419134017  0.004973263703675763  0.9999606440553778  1.0000
  Sb  Sb3       1.0  0.003942559972764459  0.0013361020471076737  0.9998218034860691  1.0000
  Sb  Sb4       1.0  0.002802845977309967  0.007238639521498148  0.9998057727658705  1.0000
  Sb  Sb5       1.0  0.006767381721021399  0.004180769026114064  0.999647643920165  1.0000
  Sb  Sb6       1.0  0.009261884489941618  0.0006794811965784766  0.9999510393620251  1.0000
  Sb  Sb7       1.0  0.009227699146606512  0.008069657733007251  0.9992431152431838  1.0000
  Sb  Sb8       1.0  0.0016086511625782397  0.004736324555670233  0.9995286647818931  1.0000
  Sb  Sb9       1.0  0.005418175196170496  0.0014029912869291247  0.999385890017332  1.0000
  Sb  Sb10      1.0  0.004386429215358264  0.0075141022034510814  0.9993620942434593  1.0000
  Sb  Sb11      1.0  0.008195953219548743  0.004180769026114064  0.9992193194782202  1.0000
  Sb  Sb12      1.0  0.0005769051009630716  0.0008474357573729553  0.9995048690178148  1.0000
