data_image0
_chemical_formula_structural       COCa6
_chemical_formula_sum              "C1 O1 Ca6"
_cell_length_a       5.618207931518555
_cell_length_b       6.8808710065318195
_cell_length_c       100.25497436523438
_cell_angle_alpha    94.34775327255112
_cell_angle_beta     90.0
_cell_angle_gamma    65.90515616685254

_space_group_name_H-M_alt    "P 1"
_space_group_IT_number       1

loop_
  _space_group_symop_operation_xyz
  'x, y, z'

loop_
  _atom_site_type_symbol
  _atom_site_label
  _atom_site_symmetry_multiplicity
  _atom_site_fract_x
  _atom_site_fract_y
  _atom_site_fract_z
  _atom_site_occupancy
  C   C1        1.0  0.00035033265123049246  0.009299334644493057  0.00024718754325691987  1.0000
  O   O1        1.0  0.00035033265123049246  0.009299334644493057  0.000366882594746119  1.0000
  Ca  Ca1       1.0  0.006732999935491907  0.006533998696775311  0.9996697793668272  1.0000
  Ca  Ca2       1.0  0.002566333509843699  0.004867332264192165  0.9999212627921135  1.0000
  Ca  Ca3       1.0  0.0008996672600158942  0.008200665426922254  0.9994182956458241  1.0000
  Ca  Ca4       1.0  0.009649667227541639  0.0007006654388248064  0.9997955210049373  1.0000
  Ca  Ca5       1.0  0.005482999887881699  0.009033998791995726  4.700487500661094e-05  1.0000
  Ca  Ca6       1.0  0.0038163336318448554  0.0023673320201898513  0.9995440375804252  1.0000
