data_image0
_chemical_formula_structural       HGa8Pt16Ga8Pt16
_chemical_formula_sum              "H1 Ga16 Pt32"
_cell_length_a       5.59740686416626
_cell_length_b       16.75320053100586
_cell_length_c       101.8590087890625
_cell_angle_alpha    90.0
_cell_angle_beta     90.0
_cell_angle_gamma    90.0

_space_group_name_H-M_alt    "P 1"
_space_group_IT_number       1

loop_
  _space_group_symop_operation_xyz
  'x, y, z'

loop_
  _atom_site_type_symbol
  _atom_site_label
  _atom_site_symmetry_multiplicity
  _atom_site_fract_x
  _atom_site_fract_y
  _atom_site_fract_z
  _atom_site_occupancy
  H   H1        1.0  0.0015164215352252433  0.008943173555661512  9.329159801942407e-05  1.0000
  Ga  Ga1       1.0  0.0002568121470742007  5.3999997586341024e-08  0.9995819959784064  1.0000
  Ga  Ga2       1.0  0.0002568121470742007  0.005000053562775986  0.9995819959784064  1.0000
  Ga  Ga3       1.0  0.008199691719328338  0.002500053909662114  0.9993865112049115  1.0000
  Ga  Ga4       1.0  0.0023139317745099015  0.007500053438252761  0.9993865112049115  1.0000
  Ga  Ga5       1.0  0.0034224942876556197  0.0009315122206524232  0.9993865112049115  1.0000
  Ga  Ga6       1.0  0.007091129372567269  0.009068595127262451  0.9993865112049115  1.0000
  Ga  Ga7       1.0  0.0034224942876556197  0.004068595376308903  0.9993865112049115  1.0000
  Ga  Ga8       1.0  0.007091129372567269  0.00593151174924307  0.9993865112049115  1.0000
  Pt  Pt1       1.0  0.005256811830111445  5.3999997586341024e-08  0.9995819959784064  1.0000
  Pt  Pt2       1.0  0.005256811830111445  0.005000053562775986  0.9995819959784064  1.0000
  Pt  Pt3       1.0  0.002938982162436908  0.002500053909662114  0.9993865112049115  1.0000
  Pt  Pt4       1.0  0.007574641830555279  0.007500053438252761  0.9993865112049115  1.0000
  Pt  Pt5       1.0  0.00821452324691171  0.0006915045437422056  0.9993865112049115  1.0000
  Pt  Pt6       1.0  0.002299100579695829  0.009308602970944846  0.9993865112049115  1.0000
  Pt  Pt7       1.0  0.00821452324691171  0.004308603219991297  0.9993865112049115  1.0000
  Pt  Pt8       1.0  0.002299100579695829  0.00569150435028648  0.9993865112049115  1.0000
  Pt  Pt9       1.0  0.000770436378828359  0.0015595790186747269  0.9995819959784064  1.0000
  Pt  Pt10      1.0  0.009743187530971503  0.0084405284404216  0.9995819959784064  1.0000
  Pt  Pt11      1.0  0.000770436378828359  0.0034405286894680503  0.9995819959784064  1.0000
  Pt  Pt12      1.0  0.009743187530971503  0.006559578880809727  0.9995819959784064  1.0000
  Pt  Pt13      1.0  0.00583551826991826  0.0016800198836195972  0.9995819959784064  1.0000
  Pt  Pt14      1.0  0.004678105723073926  0.008320087797839631  0.9995819959784064  1.0000
  Pt  Pt15      1.0  0.00583551826991826  0.00332008782452318  0.9995819959784064  1.0000
  Pt  Pt16      1.0  0.004678105723073926  0.006680019523391695  0.9995819959784064  1.0000
  Ga  Ga9       1.0  0.0002570588331139505  0.00999993368248792  0.0  1.0000
  Ga  Ga10      1.0  0.00025702314360680857  0.0050001651889531075  0.0  1.0000
  Ga  Ga11      1.0  0.008266920434935541  0.0025000547991137247  0.9997794349208411  1.0000
  Ga  Ga12      1.0  0.002244327751658139  0.0075000525488011505  0.999779391033232  1.0000
  Ga  Ga13      1.0  0.0034687082893651916  0.0009117352640922721  0.9997799492836194  1.0000
  Ga  Ga14      1.0  0.00704545478988872  0.00908873586953131  0.9997798936926479  1.0000
  Ga  Ga15      1.0  0.0034682327620392628  0.0040883687750626115  0.9997799165142046  1.0000
  Ga  Ga16      1.0  0.007045380915104706  0.005911390574909643  0.999779898959161  1.0000
  Pt  Pt17      1.0  0.005256612168533029  0.009999945245358856  0.9999676712168216  1.0000
  Pt  Pt18      1.0  0.005256494368201763  0.005000108708775839  0.9999676641948042  1.0000
  Pt  Pt19      1.0  0.0028894461248317837  0.002500031006283143  0.9997767513398383  1.0000
  Pt  Pt20      1.0  0.007622611855847023  0.007500055217155982  0.9997767039412205  1.0000
  Pt  Pt21      1.0  0.008281723344359337  0.0006391430833375173  0.9997760532342701  1.0000
  Pt  Pt22      1.0  0.002231620456884472  0.00936092674083754  0.9997760450419164  1.0000
  Pt  Pt23      1.0  0.00828163216557186  0.004360971017738711  0.9997760508935976  1.0000
  Pt  Pt24      1.0  0.0022315607247955956  0.005639192143264725  0.9997760473825889  1.0000
  Pt  Pt25      1.0  0.0008234046821587865  0.0014853561718606086  0.9999632531975085  1.0000
  Pt  Pt26      1.0  0.009690098182809161  0.008514311119869956  0.9999631946806963  1.0000
  Pt  Pt27      1.0  0.0008234247315089525  0.0035147625432458487  0.9999632479309953  1.0000
  Pt  Pt28      1.0  0.009690240608068432  0.0064857930882807335  0.9999631940955283  1.0000
  Pt  Pt29      1.0  0.005911809624569784  0.0016848879634654833  0.99995389460375  1.0000
  Pt  Pt30      1.0  0.004602107205404079  0.00831527586462666  0.9999538115098768  1.0000
  Pt  Pt31      1.0  0.005911654554077214  0.003315285897640827  0.9999538793893789  1.0000
  Pt  Pt32      1.0  0.004602095891247969  0.006684839906394967  0.9999538150208855  1.0000
