data_image0
_chemical_formula_structural       HIn16
_chemical_formula_sum              "H1 In16"
_cell_length_a       6.974192142486572
_cell_length_b       6.974192129085311
_cell_length_c       103.30449676513672
_cell_angle_alpha    90.0
_cell_angle_beta     90.0
_cell_angle_gamma    93.96859190681235

_space_group_name_H-M_alt    "P 1"
_space_group_IT_number       1

loop_
  _space_group_symop_operation_xyz
  'x, y, z'

loop_
  _atom_site_type_symbol
  _atom_site_label
  _atom_site_symmetry_multiplicity
  _atom_site_fract_x
  _atom_site_fract_y
  _atom_site_fract_z
  _atom_site_occupancy
  H   H1        1.0  0.0012500000712928482  0.0012500000267718786  0.00014520224936221998  1.0000
  In  In1       1.0  0.00375000007107577  0.0037499999464562428  0.9993091611750773  1.0000
  In  In2       1.0  0.006249999946584633  0.0062499999999999995  0.9995394408795482  1.0000
  In  In3       1.0  0.00375000007107577  0.0037499999464562428  0.999769720295529  1.0000
  In  In4       1.0  0.0012500000712928482  0.0012500000267718786  0.0  1.0000
  In  In5       1.0  0.0037500002358959264  0.008750000321262543  0.9993091611750773  1.0000
  In  In6       1.0  0.006250000076634384  0.0012500000267718786  0.9995394408795482  1.0000
  In  In7       1.0  0.0037500002358959264  0.008750000321262543  0.999769720295529  1.0000
  In  In8       1.0  0.001250000008012305  0.0062499999999999995  0.0  1.0000
  In  In9       1.0  0.00874999994287889  0.0037499999464562428  0.9993091611750773  1.0000
  In  In10      1.0  0.001250000008012305  0.0062499999999999995  0.9995394408795482  1.0000
  In  In11      1.0  0.00874999994287889  0.0037499999464562428  0.999769720295529  1.0000
  In  In12      1.0  0.006250000076634384  0.0012500000267718786  0.0  1.0000
  In  In13      1.0  0.00875000037477588  0.008750000321262543  0.9993091611750773  1.0000
  In  In14      1.0  0.0012500000712928482  0.0012500000267718786  0.9995394408795482  1.0000
  In  In15      1.0  0.00875000037477588  0.008750000321262543  0.999769720295529  1.0000
  In  In16      1.0  0.006249999946584633  0.0062499999999999995  0.0  1.0000
