data_image0
_chemical_formula_structural       Al18Ir4H
_chemical_formula_sum              "Al18 Ir4 H1"
_cell_length_a       6.432790626873113
_cell_length_b       6.491117477416992
_cell_length_c       105.26912689208984
_cell_angle_alpha    90.0
_cell_angle_beta     94.98986130055239
_cell_angle_gamma    90.0

_space_group_name_H-M_alt    "P 1"
_space_group_IT_number       1

loop_
  _space_group_symop_operation_xyz
  'x, y, z'

loop_
  _atom_site_type_symbol
  _atom_site_label
  _atom_site_symmetry_multiplicity
  _atom_site_fract_x
  _atom_site_fract_y
  _atom_site_fract_z
  _atom_site_occupancy
  Al  Al1       1.0  0.00978156284850855  0.005058372882333323  2.881083619162253e-05  1.0000
  Al  Al2       1.0  0.00021843770519173382  8.678440174458655e-05  0.9996268835598844  1.0000
  Al  Al3       1.0  0.0023499930942384234  0.006125195564157715  0.999660010549676  1.0000
  Al  Al4       1.0  0.007669193646641683  0.0014423496536547058  1.138156758977108e-05  1.0000
  Al  Al5       1.0  0.004222643352997883  0.005285268856066984  0.9994343065152186  1.0000
  Al  Al6       1.0  0.006214232066105272  0.0002852689062837457  0.9994006632953176  1.0000
  Al  Al7       1.0  0.006203013313566099  0.004947504028359947  0.999817982608534  1.0000
  Al  Al8       1.0  0.003977011443097362  0.009913215793742094  0.9998564284484224  1.0000
  Al  Al9       1.0  0.0039045700064854025  0.0031315287529585993  2.3060669289505927e-05  1.0000
  Al  Al10      1.0  0.0063375296385734725  0.00814047399389254  0.9996281349641344  1.0000
  Al  Al11      1.0  0.006185115278852973  0.0073333167359761284  3.287478386585046e-05  1.0000
  Al  Al12      1.0  0.004099346071186001  0.0020330947629667827  0.9996256315853516  1.0000
  Al  Al13      1.0  0.0011993771623434863  0.002240893015180131  0.9993982226718556  1.0000
  Al  Al14      1.0  0.009237498402087829  0.007240893216047178  0.9994367471394531  1.0000
  Al  Al15      1.0  0.00941640782907764  0.008192231119140284  0.9998637839367988  1.0000
  Al  Al16      1.0  0.001089271608153318  0.0029810325608468757  0.9998117012160279  1.0000
  Al  Al17      1.0  0.0023499930942384234  0.009048373537045117  0.9992412132460592  1.0000
  Al  Al18      1.0  0.008086882470192892  0.004048373192701607  0.9995937565652495  1.0000
  Ir  Ir1       1.0  0.002806196931737043  0.0063141730044237575  0.9999059687902528  1.0000
  Ir  Ir2       1.0  0.0074816831179072415  0.0013097728108751577  0.9997663481083959  1.0000
  Ir  Ir3       1.0  0.007576616702985219  0.0038583090617070916  0.999349162901246  1.0000
  Ir  Ir4       1.0  0.0028602590067742543  0.008858309119097676  0.9994858069108352  1.0000
  H   H1        1.0  0.002806196931737043  0.0063141730044237575  4.846057428994127e-05  1.0000
