data_image0
_chemical_formula_structural       HMn2Au8Mn2Au8
_chemical_formula_sum              "H1 Mn4 Au16"
_cell_length_a       6.544747352600098
_cell_length_b       6.544747352600098
_cell_length_c       101.81534576416016
_cell_angle_alpha    90.0
_cell_angle_beta     90.0
_cell_angle_gamma    90.0

_space_group_name_H-M_alt    "P 1"
_space_group_IT_number       1

loop_
  _space_group_symop_operation_xyz
  'x, y, z'

loop_
  _atom_site_type_symbol
  _atom_site_label
  _atom_site_symmetry_multiplicity
  _atom_site_fract_x
  _atom_site_fract_y
  _atom_site_fract_z
  _atom_site_occupancy
  H   H1        1.0  0.0005064225701335597  0.0005064226412839437  8.710860098817988e-05  1.0000
  Mn  Mn1       1.0  0.0005064216451785676  0.0005064216451785676  0.999604446093432  1.0000
  Mn  Mn2       1.0  0.005506421566913146  0.005506421566913146  0.9994091456091584  1.0000
  Au  Au1       1.0  0.00755925870725877  0.001519264899960511  0.9994091456091584  1.0000
  Au  Au2       1.0  0.006519264928420665  0.00845358488192998  0.999604446093432  1.0000
  Au  Au3       1.0  0.004493578490007162  0.0025592582518963116  0.999604446093432  1.0000
  Au  Au4       1.0  0.0034535849957705936  0.009493578660768085  0.9994091456091584  1.0000
  Au  Au5       1.0  0.0025592582518963116  0.006519264928420665  0.999604446093432  1.0000
  Au  Au6       1.0  0.001519264899960511  0.0034535849957705936  0.9994091456091584  1.0000
  Au  Au7       1.0  0.009493578660768085  0.00755925870725877  0.9994091456091584  1.0000
  Au  Au8       1.0  0.00845358488192998  0.004493578490007162  0.999604446093432  1.0000
  Mn  Mn3       1.0  0.0005064225701335597  0.0005064226412839437  0.9999661001380578  1.0000
  Mn  Mn4       1.0  0.005506420428507001  0.005506421566913146  0.9998090884024755  1.0000
  Au  Au9       1.0  0.007553677671137962  0.0016055680389378618  0.9997995501696085  1.0000
  Au  Au10      1.0  0.006573882239989858  0.008492290690824921  0.0  1.0000
  Au  Au11      1.0  0.004438958617024145  0.0025205527276029064  0.0  1.0000
  Au  Au12      1.0  0.003459164324282185  0.009407275521790734  0.9997995501696085  1.0000
  Au  Au13      1.0  0.0025205524430013705  0.00657388565520829  5.854190675092904e-10  1.0000
  Au  Au14      1.0  0.0016055680389378618  0.003459164324282185  0.9997995501696085  1.0000
  Au  Au15      1.0  0.009407276660196877  0.007553679378747178  0.9997995507550276  1.0000
  Au  Au16      1.0  0.008492291829231065  0.004438960324633361  0.0  1.0000
