data_image0
_chemical_formula_structural       HAu32
_chemical_formula_sum              "H1 Au32"
_cell_length_a       5.9341630935668945
_cell_length_b       7.267835662110054
_cell_length_c       104.34645080566406
_cell_angle_alpha    94.04469139019051
_cell_angle_beta     90.0
_cell_angle_gamma    90.0

_space_group_name_H-M_alt    "P 1"
_space_group_IT_number       1

loop_
  _space_group_symop_operation_xyz
  'x, y, z'

loop_
  _atom_site_type_symbol
  _atom_site_label
  _atom_site_symmetry_multiplicity
  _atom_site_fract_x
  _atom_site_fract_y
  _atom_site_fract_z
  _atom_site_occupancy
  H   H1        1.0  0.00499999913367723  0.006278243772574134  9.447982766488623e-05  1.0000
  Au  Au1       1.0  1.349999931118153e-09  0.009875000197319168  0.9993782464764397  1.0000
  Au  Au2       1.0  1.349999931118153e-09  0.009374999588918397  0.9988845097092166  1.0000
  Au  Au3       1.0  1.349999931118153e-09  0.002874999901340415  0.9990490885750409  1.0000
  Au  Au4       1.0  1.349999931118153e-09  0.006375000049329792  0.9992136675257404  1.0000
  Au  Au5       1.0  0.0025000012932064543  0.006124999745129406  0.9989667992849335  1.0000
  Au  Au6       1.0  0.0025000012932064543  0.009624999893118782  0.9991313782356328  1.0000
  Au  Au7       1.0  0.0025000012932064543  0.0031249999486147994  0.9992959568145856  1.0000
  Au  Au8       1.0  0.0025000012932064543  0.002624999854066031  0.9988022203354963  1.0000
  Au  Au9       1.0  0.00999999826735446  0.0040113478932462514  1.970696446795118e-05  1.0000
  Au  Au10      1.0  1.349999931118153e-09  0.0033749999958891837  0.999542825625349  1.0000
  Au  Au11      1.0  1.349999931118153e-09  0.00687500014387856  0.9997074045760483  1.0000
  Au  Au12      1.0  4.749999707747259e-09  0.00031514418092163374  0.9998863351418006  1.0000
  Au  Au13      1.0  0.0025000012932064543  0.0001249999995503795  0.9996251149147071  1.0000
  Au  Au14      1.0  0.0025000022348616396  0.003472982837375986  0.9997851358629968  1.0000
  Au  Au15      1.0  0.0024999997237811454  0.007158917763388533  0.999954134415175  1.0000
  Au  Au16      1.0  0.0025000012932064543  0.0066249998396781746  0.9994605357640228  1.0000
  Au  Au17      1.0  0.005000001330872661  0.009875000197319168  0.9993782464764397  1.0000
  Au  Au18      1.0  0.005000001330872661  0.009374999588918397  0.9988845097092166  1.0000
  Au  Au19      1.0  0.005000001330872661  0.002874999901340415  0.9990490885750409  1.0000
  Au  Au20      1.0  0.005000001330872661  0.006375000049329792  0.9992136675257404  1.0000
  Au  Au21      1.0  0.007500001054653808  0.006124999745129406  0.9989667992849335  1.0000
  Au  Au22      1.0  0.007500001054653808  0.009624999893118782  0.9991313782356328  1.0000
  Au  Au23      1.0  0.007500001054653808  0.0031249999486147994  0.9992959568145856  1.0000
  Au  Au24      1.0  0.007500001054653808  0.002624999854066031  0.9988022203354963  1.0000
  Au  Au25      1.0  0.0049999985059071056  0.0040113478932462514  1.970696446795118e-05  1.0000
  Au  Au26      1.0  0.005000001330872661  0.0033749999958891837  0.999542825625349  1.0000
  Au  Au27      1.0  0.005000001330872661  0.00687500014387856  0.9997074045760483  1.0000
  Au  Au28      1.0  0.005000004469723279  0.00031514418092163374  0.9998863351418006  1.0000
  Au  Au29      1.0  0.007500001054653808  0.0001249999995503795  0.9996251149147071  1.0000
  Au  Au30      1.0  0.007500002310194054  0.003472982837375986  0.9997851358629968  1.0000
  Au  Au31      1.0  0.00749999979911356  0.007158917763388533  0.999954134415175  1.0000
  Au  Au32      1.0  0.007500001054653808  0.0066249998396781746  0.9994605357640228  1.0000
