data_image0
_chemical_formula_structural       HSn6Au30Sn6Au30
_chemical_formula_sum              "H1 Sn12 Au60"
_cell_length_a       9.068779945373535
_cell_length_b       15.642358037800866
_cell_length_c       106.65103912353516
_cell_angle_alpha    109.55571499294155
_cell_angle_beta     90.0
_cell_angle_gamma    90.0

_space_group_name_H-M_alt    "P 1"
_space_group_IT_number       1

loop_
  _space_group_symop_operation_xyz
  'x, y, z'

loop_
  _atom_site_type_symbol
  _atom_site_label
  _atom_site_symmetry_multiplicity
  _atom_site_fract_x
  _atom_site_fract_y
  _atom_site_fract_z
  _atom_site_occupancy
  H   H1        1.0  0.0016860193326759946  0.0037658646672594004  0.00015454837691180305  1.0000
  Sn  Sn1       1.0  0.0016668747413717405  0.006674058782850536  0.9992025398893317  1.0000
  Sn  Sn2       1.0  0.006666874577058996  0.006674058782850536  0.9994480069178278  1.0000
  Sn  Sn3       1.0  0.003333541421731136  0.003340725604526482  0.999284362254677  1.0000
  Sn  Sn4       1.0  0.008333541462809322  0.003340725604526482  0.999529829283173  1.0000
  Sn  Sn5       1.0  2.0809999951526455e-07  7.3923501852245296e-06  0.9996116516447864  1.0000
  Sn  Sn6       1.0  0.005000208102090531  7.3923501852245296e-06  0.9993661846162903  1.0000
  Au  Au1       1.0  2.0809999951526455e-07  0.006707837495044016  0.9994496652296985  1.0000
  Au  Au2       1.0  0.005000208102090531  0.006707837495044016  0.9992041982012024  1.0000
  Au  Au3       1.0  0.003333541421731136  0.008340725624745084  0.9991996914887351  1.0000
  Au  Au4       1.0  0.008333541462809322  0.008340725624745084  0.9994451585172311  1.0000
  Au  Au5       1.0  0.004971199097883599  0.008340725624745084  0.9994494308404146  1.0000
  Au  Au6       1.0  0.009971198933570855  0.008340725624745084  0.9992039638119186  1.0000
  Au  Au7       1.0  0.0016958834374922772  0.008340725624745084  0.9994494308404146  1.0000
  Au  Au8       1.0  0.0066958831704840675  0.008340725624745084  0.9992039638119186  1.0000
  Au  Au9       1.0  0.0016668747413717405  0.00997361375444615  0.9993645262654268  1.0000
  Au  Au10      1.0  0.006666874577058996  0.00997361375444615  0.9996099932939229  1.0000
  Au  Au11      1.0  0.0016668747413717405  0.0033745043167199614  0.9995314875950437  1.0000
  Au  Au12      1.0  0.006666874577058996  0.0033745043167199614  0.9992860205665477  1.0000
  Au  Au13      1.0  2.0809999951526455e-07  0.005007392446421029  0.9995269808825765  1.0000
  Au  Au14      1.0  0.005000208102090531  0.005007392446421029  0.9992815138540805  1.0000
  Au  Au15      1.0  0.0016378659425557388  0.005007392446421029  0.9992857861772638  1.0000
  Au  Au16      1.0  0.006637865983633925  0.005007392446421029  0.9995312532057599  1.0000
  Au  Au17      1.0  0.0033625502205471376  0.005007392446421029  0.9995312532057599  1.0000
  Au  Au18      1.0  0.008362550056234394  0.005007392446421029  0.9992857861772638  1.0000
  Au  Au19      1.0  0.003333541421731136  0.006640280070657057  0.999446348605957  1.0000
  Au  Au20      1.0  0.008333541462809322  0.006640280070657057  0.999200881577461  1.0000
  Au  Au21      1.0  0.003333541421731136  4.11710515191036e-05  0.999613309956124  1.0000
  Au  Au22      1.0  0.008333541462809322  4.11710515191036e-05  0.9993678429276279  1.0000
  Au  Au23      1.0  0.0016668747413717405  0.0016740590153644548  0.9996088032355143  1.0000
  Au  Au24      1.0  0.006666874577058996  0.0016740590153644548  0.9993633362070182  1.0000
  Au  Au25      1.0  0.003304532622915134  0.0016740590153644548  0.9993676085302017  1.0000
  Au  Au26      1.0  0.00830453286938425  0.0016740590153644548  0.9996130758381354  1.0000
  Au  Au27      1.0  2.921679885291466e-05  0.0016740590153644548  0.9993676085302017  1.0000
  Au  Au28      1.0  0.005029216695515603  0.0016740590153644548  0.9996130758381354  1.0000
  Au  Au29      1.0  2.0809999951526455e-07  0.0033069468923330025  0.9992827039428063  1.0000
  Au  Au30      1.0  0.005000208102090531  0.0033069468923330025  0.9995281709713023  1.0000
  Sn  Sn7       1.0  0.0016668747413717405  0.006674058782850536  0.9996934739463238  1.0000
  Sn  Sn8       1.0  0.00672033660385801  0.006717259363379965  0.9999582232259165  1.0000
  Sn  Sn9       1.0  0.003333541421731136  0.003340725604526482  0.9997752963116691  1.0000
  Sn  Sn10      1.0  0.008330576439340204  0.0034721159341569753  4.420634562046133e-05  1.0000
  Sn  Sn11      1.0  1.1007999916913207e-05  8.547049527411114e-06  9.59900957174035e-05  1.0000
  Sn  Sn12      1.0  0.004995974173454316  0.009944756755342109  0.9998470269532276  1.0000
  Au  Au31      1.0  1.982869874980759e-05  0.006691942135947418  0.9999458614905397  1.0000
  Au  Au32      1.0  0.005000208102090531  0.006707837495044016  0.9996951322581945  1.0000
  Au  Au33      1.0  0.003333541421731136  0.008340725624745084  0.9996906255457272  1.0000
  Au  Au34      1.0  0.008372404713067884  0.008326150034866574  0.9999520471451065  1.0000
  Au  Au35      1.0  0.004957674926690226  0.00826430790368104  0.9999642510785012  1.0000
  Au  Au36      1.0  0.009971198933570855  0.008340725624745084  0.9996948978689106  1.0000
  Au  Au37      1.0  0.001695313477660828  0.008314705295442617  0.9999637749545092  1.0000
  Au  Au38      1.0  0.0066958831704840675  0.008340725624745084  0.9996948978689106  1.0000
  Au  Au39      1.0  0.001619225277898858  0.009904357967526532  0.999844809749963  1.0000
  Au  Au40      1.0  0.006629928445743406  0.009954805400327017  8.075184421264989e-05  1.0000
  Au  Au41      1.0  0.0016860193326759946  0.0033725431123667704  2.9085526979684167e-05  1.0000
  Au  Au42      1.0  0.006666874577058996  0.0033745043167199614  0.9997769546235398  1.0000
  Au  Au43      1.0  1.6925899104856208e-05  0.004973064293729632  9.91995025116558e-06  1.0000
  Au  Au44      1.0  0.005000208102090531  0.005007392446421029  0.9997724479110724  1.0000
  Au  Au45      1.0  0.0016378659425557388  0.005007392446421029  0.9997767205136936  1.0000
  Au  Au46      1.0  0.00660467357695962  0.00501622645891606  1.4910988551617732e-05  1.0000
  Au  Au47      1.0  0.0033478113673922542  0.00494508680379429  1.330358772670232e-05  1.0000
  Au  Au48      1.0  0.008362550056234394  0.005007392446421029  0.9997767205136936  1.0000
  Au  Au49      1.0  0.003294648800569547  0.006618606235229098  0.9999380606740498  1.0000
  Au  Au50      1.0  0.008333541462809322  0.006640280070657057  0.9996918156344531  1.0000
  Au  Au51      1.0  0.003381668213725924  0.009992607108769735  8.280214730010451e-05  1.0000
  Au  Au52      1.0  0.008384155538969462  0.009985900598625886  0.9998469809614269  1.0000
  Au  Au53      1.0  0.001643398558043937  0.001607548029975484  7.841924804874132e-05  1.0000
  Au  Au54      1.0  0.006693305514309405  0.0017467667494049583  0.9998519128600919  1.0000
  Au  Au55      1.0  0.003316287145853456  0.0016948551107513529  0.9998517993614121  1.0000
  Au  Au56      1.0  0.008320712745305782  0.00165135617948237  8.323912813749101e-05  1.0000
  Au  Au57      1.0  0.009999791815753096  0.0017286190380924275  0.9998539185785449  1.0000
  Au  Au58      1.0  0.005039151454811892  0.0016142504963990185  7.924904730254209e-05  1.0000
  Au  Au59      1.0  2.0809999951526455e-07  0.0033069468923330025  0.9997736379997983  1.0000
  Au  Au60      1.0  0.004974644325347646  0.0033569103423581837  2.6639199353812362e-05  1.0000
