data_image0
_chemical_formula_structural       HRh4Sn2V2Rh4Sn2V2
_chemical_formula_sum              "H1 Rh8 Sn4 V4"
_cell_length_a       8.205523490905762
_cell_length_b       4.698842199780943
_cell_length_c       41.28449630737305
_cell_angle_alpha    91.7638707936055
_cell_angle_beta     90.0
_cell_angle_gamma    115.88533695828828

_space_group_name_H-M_alt    "P 1"
_space_group_IT_number       1

loop_
  _space_group_symop_operation_xyz
  'x, y, z'

loop_
  _atom_site_type_symbol
  _atom_site_label
  _atom_site_symmetry_multiplicity
  _atom_site_fract_x
  _atom_site_fract_y
  _atom_site_fract_z
  _atom_site_occupancy
  H   H1        1.0  0.0007978876902162153  0.0031806149609308735  0.00014458741346789935  1.0000
  Rh  Rh1       1.0  0.0017068663191701576  0.006815225976999027  0.9996593645379012  1.0000
  Rh  Rh2       1.0  0.0048187787841450155  0.009265483299081376  3.2459922810273e-05  1.0000
  Rh  Rh3       1.0  0.00048749828378109926  0.0019501632351271471  0.9987785311380549  1.0000
  Rh  Rh4       1.0  0.0036124983211929347  0.0044501632615793485  0.9992132509157018  1.0000
  Sn  Sn1       1.0  0.00018122099763119023  0.0007345160903136297  0.9994196584033377  1.0000
  Sn  Sn2       1.0  0.003924998352053837  0.005700163385022957  0.9985611711306933  1.0000
  V   V1        1.0  0.0034758329350569766  0.0038959816960920488  0.9998469855388387  1.0000
  V   V2        1.0  0.0020499982727593485  0.008200163191040144  0.9989958909075679  1.0000
  Rh  Rh5       1.0  0.006706866349185448  0.006815225976999027  0.9996593645379012  1.0000
  Rh  Rh6       1.0  0.00981877892034438  0.009265483299081376  3.2459922810273e-05  1.0000
  Rh  Rh7       1.0  0.005487498496179038  0.0019501632351271471  0.9987785311380549  1.0000
  Rh  Rh8       1.0  0.008612498230393357  0.0044501632615793485  0.9992132509157018  1.0000
  Sn  Sn3       1.0  0.005181220927004371  0.0007345160903136297  0.9994196584033377  1.0000
  Sn  Sn4       1.0  0.00892499826125426  0.005700163385022957  0.9985611711306933  1.0000
  V   V3        1.0  0.008475832844257401  0.0038959816960920488  0.9998469855388387  1.0000
  V   V4        1.0  0.007049998485157287  0.008200163191040144  0.9989958909075679  1.0000
