data_image0
_chemical_formula_structural       HIr6Ni6Zn12
_chemical_formula_sum              "H1 Ir6 Ni6 Zn12"
_cell_length_a       6.004417419433594
_cell_length_b       7.353879314487975
_cell_length_c       102.33477783203125
_cell_angle_alpha    94.34775298227461
_cell_angle_beta     90.0
_cell_angle_gamma    114.09484298994525

_space_group_name_H-M_alt    "P 1"
_space_group_IT_number       1

loop_
  _space_group_symop_operation_xyz
  'x, y, z'

loop_
  _atom_site_type_symbol
  _atom_site_label
  _atom_site_symmetry_multiplicity
  _atom_site_fract_x
  _atom_site_fract_y
  _atom_site_fract_z
  _atom_site_occupancy
  H   H1        1.0  0.008713580502910465  0.0021093780626663863  0.00013382811182806846  1.0000
  Ir  Ir1       1.0  0.0069789314400382635  0.0036361503887247545  0.9997812529319298  1.0000
  Ir  Ir2       1.0  0.0027926199104056546  0.005262418165554158  0.9995099219709674  1.0000
  Ir  Ir3       1.0  0.0011245036050930837  0.0019271467676507587  1.555312872989792e-05  1.0000
  Ir  Ir4       1.0  0.009875952825851258  0.009429084460988535  0.9996415762696786  1.0000
  Ir  Ir5       1.0  0.005709286631811186  0.0010957514524834548  0.9993782676699812  1.0000
  Ir  Ir6       1.0  0.004009716959324698  0.007700627479089227  0.9999052659262897  1.0000
  Ni  Ni1       1.0  0.001953391758621363  0.0035886052773194295  0.9997787771216626  1.0000
  Ni  Ni2       1.0  0.007792619988346538  0.005262418165554158  0.9995099219709674  1.0000
  Ni  Ni3       1.0  0.006087649928565692  0.0018615945700150036  1.0141535373088913e-05  1.0000
  Ni  Ni4       1.0  0.0048759529999580055  0.009429084460988535  0.9996415762696786  1.0000
  Ni  Ni5       1.0  0.0007092866023410012  0.0010957514524834548  0.9993782676699812  1.0000
  Ni  Ni6       1.0  0.009031193436525453  0.00774349979686169  0.9999033916069016  1.0000
  Zn  Zn1       1.0  0.005135688511581211  0.004947203529439017  0.9999858735184288  1.0000
  Zn  Zn2       1.0  0.0009176199635295392  0.006512418165554157  0.9997074034715758  1.0000
  Zn  Zn3       1.0  0.006750953302811454  0.008179085017836969  0.9994440947721038  1.0000
  Zn  Zn4       1.0  0.001750953234564711  0.008179085017836969  0.9994440947721038  1.0000
  Zn  Zn5       1.0  0.00012404684112020148  0.004946805939657231  0.9999860763740037  1.0000
  Zn  Zn6       1.0  0.005917619876670048  0.006512418165554157  0.9997074034715758  1.0000
  Zn  Zn7       1.0  0.009667620100023025  0.004012418165554157  0.9993124404703592  1.0000
  Zn  Zn8       1.0  0.0079293596666307  0.0005724043429054836  0.9998343564665115  1.0000
  Zn  Zn9       1.0  0.003834286589740751  0.0023457515916955633  0.9995757491713478  1.0000
  Zn  Zn10      1.0  0.008834286813093728  0.0023457515916955633  0.9995757491713478  1.0000
  Zn  Zn11      1.0  0.004667619876670049  0.004012418165554157  0.9993124404703592  1.0000
  Zn  Zn12      1.0  0.0029611369046804526  0.0005709151561781665  0.9998342638988671  1.0000
