data_image0
_chemical_formula_structural       HRe18Ir6Re18Ir6
_chemical_formula_sum              "H1 Re36 Ir12"
_cell_length_a       7.837954044342041
_cell_length_b       8.72711200962528
_cell_length_c       103.1170654296875
_cell_angle_alpha    71.56505117707799
_cell_angle_beta     90.0
_cell_angle_gamma    90.0

_space_group_name_H-M_alt    "P 1"
_space_group_IT_number       1

loop_
  _space_group_symop_operation_xyz
  'x, y, z'

loop_
  _atom_site_type_symbol
  _atom_site_label
  _atom_site_symmetry_multiplicity
  _atom_site_fract_x
  _atom_site_fract_y
  _atom_site_fract_z
  _atom_site_occupancy
  H   H1        1.0  0.009999942166881694  0.0026897765289112785  0.9999214803423332  1.0000
  Re  Re1       1.0  0.007500002965800939  0.008357925490520638  0.9989891659492557  1.0000
  Re  Re2       1.0  0.007500002965800939  0.0050245922831744835  0.9993460101811815  1.0000
  Re  Re3       1.0  0.007500002965800939  0.0016912590758283276  0.999167588083282  1.0000
  Re  Re4       1.0  0.007500002965800939  0.0050245922831744835  0.9990783770162689  1.0000
  Re  Re5       1.0  0.007500002965800939  0.0016912590758283276  0.9988999549183694  1.0000
  Re  Re6       1.0  0.007500002965800939  0.008357925490520638  0.9992567991141684  1.0000
  Re  Re7       1.0  2.950000045478181e-09  0.006691259111824664  0.9988999548942848  1.0000
  Re  Re8       1.0  2.950000045478181e-09  0.003357925679501405  0.9992567991322318  1.0000
  Re  Re9       1.0  2.950000045478181e-09  2.459229990715501e-05  0.9990783770389422  1.0000
  Re  Re10      1.0  0.0025000028897547606  0.0050245922831744835  0.9990783770162689  1.0000
  Re  Re11      1.0  0.0025000028897547606  0.0016912590758283276  0.9988999549183694  1.0000
  Re  Re12      1.0  0.0025000028897547606  0.008357925490520638  0.9992567991141684  1.0000
  Re  Re13      1.0  0.0025000028897547606  0.008357925490520638  0.9989891659492557  1.0000
  Re  Re14      1.0  0.0025000028897547606  0.0050245922831744835  0.9993460101811815  1.0000
  Re  Re15      1.0  0.0025000028897547606  0.0016912590758283276  0.999167588083282  1.0000
  Re  Re16      1.0  0.005000002927777849  0.006691259111824664  0.9991675880591975  1.0000
  Re  Re17      1.0  0.005000002927777849  0.003357925679501405  0.9989891659673191  1.0000
  Re  Re18      1.0  0.005000002927777849  2.459229990715501e-05  0.9993460102038548  1.0000
  Ir  Ir1       1.0  2.950000045478181e-09  0.006691259111824664  0.9991675880591975  1.0000
  Ir  Ir2       1.0  2.950000045478181e-09  0.003357925679501405  0.9989891659673191  1.0000
  Ir  Ir3       1.0  2.950000045478181e-09  2.459229990715501e-05  0.9993460102038548  1.0000
  Ir  Ir4       1.0  0.005000002927777849  0.006691259111824664  0.9988999548942848  1.0000
  Ir  Ir5       1.0  0.005000002927777849  0.003357925679501405  0.9992567991322318  1.0000
  Ir  Ir6       1.0  0.005000002927777849  2.459229990715501e-05  0.9990783770389422  1.0000
  Re  Re19      1.0  0.007500002965800939  0.008357925490520638  0.999524432279081  1.0000
  Re  Re20      1.0  0.007471410553481725  0.0051528472303093995  0.9998620909608295  1.0000
  Re  Re21      1.0  0.007440350442689136  0.0016465316028684877  0.9997037404892761  1.0000
  Re  Re22      1.0  0.007548198181632463  0.004922816691161454  0.9996235139483693  1.0000
  Re  Re23      1.0  0.007500002965800939  0.0016912590758283276  0.9994352212481947  1.0000
  Re  Re24      1.0  0.0074275195513202495  0.008325643975900769  0.9997856971068327  1.0000
  Re  Re25      1.0  2.950000045478181e-09  0.006691259111824664  0.9994352212241102  1.0000
  Re  Re26      1.0  0.009999942166881694  0.003351336100141348  0.9997929134906772  1.0000
  Re  Re27      1.0  1.6450000234392292e-08  0.009975408274768734  0.9996158625315388  1.0000
  Re  Re28      1.0  0.0024517984057953026  0.004922750997847247  0.999623519752743  1.0000
  Re  Re29      1.0  0.0025000028897547606  0.0016912590758283276  0.9994352212481947  1.0000
  Re  Re30      1.0  0.0025724639656706867  0.008325675472695252  0.9997856962638739  1.0000
  Re  Re31      1.0  0.0025000028897547606  0.008357925490520638  0.999524432279081  1.0000
  Re  Re32      1.0  0.0025285501496558364  0.005152894475501124  0.9998620914304779  1.0000
  Re  Re33      1.0  0.0025596623045514365  0.0016465076428069702  0.999703741130527  1.0000
  Re  Re34      1.0  0.004999982490367535  0.006666315900365136  0.9997133935298997  1.0000
  Re  Re35      1.0  0.005000002927777849  0.003357925679501405  0.9995244322971445  1.0000
  Re  Re36      1.0  0.005000105590118036  5.022620162007776e-05  0.9998629762104093  1.0000
  Ir  Ir7       1.0  0.009999972585352861  0.006685346263591785  0.9996976282971963  1.0000
  Ir  Ir8       1.0  2.950000045478181e-09  0.003357925679501405  0.9995244322971445  1.0000
  Ir  Ir9       1.0  0.009999997300360684  0.00023318840213838686  0.9998613482877622  1.0000
  Ir  Ir10      1.0  0.005000002927777849  0.006691259111824664  0.9994352212241102  1.0000
  Ir  Ir11      1.0  0.0049999991254689536  0.0033841800575198423  0.999787191751104  1.0000
  Ir  Ir12      1.0  0.00499998866911949  2.912430019623349e-05  0.9996111654535287  1.0000
