data_image0
_chemical_formula_structural       HNb8Ge8Sb8
_chemical_formula_sum              "H1 Nb8 Ge8 Sb8"
_cell_length_a       5.3383917808532715
_cell_length_b       11.258373955796326
_cell_length_c       109.64897155761719
_cell_angle_alpha    68.30356700852217
_cell_angle_beta     90.0
_cell_angle_gamma    61.69462771640364

_space_group_name_H-M_alt    "P 1"
_space_group_IT_number       1

loop_
  _space_group_symop_operation_xyz
  'x, y, z'

loop_
  _atom_site_type_symbol
  _atom_site_label
  _atom_site_symmetry_multiplicity
  _atom_site_fract_x
  _atom_site_fract_y
  _atom_site_fract_z
  _atom_site_occupancy
  H   H1        1.0  0.003164727136978878  0.008072079436540166  0.9997371623803758  1.0000
  Nb  Nb1       1.0  0.00747611049582683  1.8144101745623904e-05  0.9993882538417693  1.0000
  Nb  Nb2       1.0  0.004712996006442941  0.007779440632150039  0.9995961524469831  1.0000
  Nb  Nb3       1.0  0.00997611103457654  0.0025181441491731703  0.999162254738249  1.0000
  Nb  Nb4       1.0  0.0024761101502463055  0.005018144447326148  0.9989362550816165  1.0000
  Nb  Nb5       1.0  0.0050247329774749175  0.0074695222062747925  0.9991578588322876  1.0000
  Nb  Nb6       1.0  0.0025247326894506394  0.004969521908121814  0.99938385848892  1.0000
  Nb  Nb7       1.0  0.007524733395871845  0.009969521676225054  0.9989318597506874  1.0000
  Nb  Nb8       1.0  0.009908756717298847  0.002583596181685997  0.9995970137307582  1.0000
  Ge  Ge1       1.0  0.0075004218590970255  0.00749383326882628  0.9989340571364952  1.0000
  Ge  Ge2       1.0  0.005000421571072746  0.004993832970673302  0.9991600567931276  1.0000
  Ge  Ge3       1.0  0.009999579413302224  0.00998159687183726  0.9996212714271603  1.0000
  Ge  Ge4       1.0  0.0025004214249128216  0.0024938328795710034  0.9993860564419007  1.0000
  Ge  Ge5       1.0  4.213338105226994e-07  0.004993832970673302  0.9991600567931276  1.0000
  Ge  Ge6       1.0  0.007500421662175044  0.0024938328795710034  0.9993860564419007  1.0000
  Ge  Ge7       1.0  0.0025004212729197684  0.00749383326882628  0.9989340571364952  1.0000
  Ge  Ge8       1.0  0.005033543279690488  0.009981856099287645  0.9996211050319176  1.0000
  Sb  Sb1       1.0  0.009320514580261627  0.008173740491835273  0.9992215201118774  1.0000
  Sb  Sb2       1.0  0.00677368887343686  0.0057229975502691224  0.9994549504083773  1.0000
  Sb  Sb3       1.0  0.0018205145041205427  0.0006737398561896876  0.9989955209473103  1.0000
  Sb  Sb4       1.0  0.004470235310775562  0.003021094680982674  0.9996706731441076  1.0000
  Sb  Sb5       1.0  0.003180328839779445  0.009313926343970266  0.9993245926291208  1.0000
  Sb  Sb6       1.0  0.0007732802797169675  0.006719646347236432  0.9995828429133424  1.0000
  Sb  Sb7       1.0  0.005680328733959765  0.0018139258636126897  0.9990985934586591  1.0000
  Sb  Sb8       1.0  0.008180329021984043  0.004313926161765668  0.9988725938020268  1.0000
