data_image0
_chemical_formula_structural       HAs16Se16
_chemical_formula_sum              "H1 As16 Se16"
_cell_length_a       10.660618173539493
_cell_length_b       7.17142915725708
_cell_length_c       114.21159362792969
_cell_angle_alpha    90.0
_cell_angle_beta     90.0
_cell_angle_gamma    114.22429396419497

_space_group_name_H-M_alt    "P 1"
_space_group_IT_number       1

loop_
  _space_group_symop_operation_xyz
  'x, y, z'

loop_
  _atom_site_type_symbol
  _atom_site_label
  _atom_site_symmetry_multiplicity
  _atom_site_fract_x
  _atom_site_fract_y
  _atom_site_fract_z
  _atom_site_occupancy
  H   H1        1.0  0.0014876665361875747  0.003999129399550058  7.149587236209733e-05  1.0000
  As  As1       1.0  0.0011028210006374236  0.0073269829129965726  0.9987598132686486  1.0000
  As  As2       1.0  0.0037132749668388632  0.0002125712358734538  0.9994049842302328  1.0000
  As  As3       1.0  0.00871327444570726  0.0002125708712617769  0.9987940287068247  1.0000
  As  As4       1.0  0.0061028208626908225  0.007326983171702567  0.9994391996684089  1.0000
  As  As5       1.0  0.004120871537184714  0.009343226583103959  0.9989565606491662  1.0000
  As  As6       1.0  0.0006952242865971965  0.00819632809628151  0.9996017310888713  1.0000
  As  As7       1.0  0.00580650006775937  0.008265016022895786  0.0  1.0000
  As  As8       1.0  0.009120871399238112  0.00934322658207858  0.9992424522878913  1.0000
  As  As9       1.0  0.0031015168519369224  0.005314052587938514  0.9989451920346452  1.0000
  As  As10      1.0  0.0017145791155393647  0.0022255016907971993  0.9995903629962294  1.0000
  As  As11      1.0  0.006738521334563842  0.0016300215937218923  5.754917504022394e-05  1.0000
  As  As12      1.0  0.008101516522397819  0.005314052502519252  0.9992538203805332  1.0000
  As  As13      1.0  0.0003469672908361055  0.007102806102395089  0.9989827918588462  1.0000
  As  As14      1.0  0.004469128461098617  0.00043674778514140705  0.9996279622985513  1.0000
  As  As15      1.0  0.009653032600914132  0.0005734477498240125  0.9999099142718789  1.0000
  As  As16      1.0  0.005346966985246065  0.007102806258848316  0.9992162210782113  1.0000
  Se  Se1       1.0  0.0033648693671436652  0.00016975862741476058  0.9987698557883524  1.0000
  Se  Se2       1.0  0.00145122640874012  0.007369795534460648  0.9994150267499367  1.0000
  Se  Se3       1.0  0.006451226079201017  0.007369795416574962  0.9987839861871208  1.0000
  Se  Se4       1.0  0.00836486884601206  0.00016975813293739617  0.9994291571487051  1.0000
  Se  Se5       1.0  0.0020199651096872895  0.004727959532823032  0.998752677354645  1.0000
  Se  Se6       1.0  0.0027961308577889974  0.002811595005644056  0.9993978480552898  1.0000
  Se  Se7       1.0  0.007796130336657393  0.0028115946410323792  0.9988011648817677  1.0000
  Se  Se8       1.0  0.007019964588555685  0.004727959168211355  0.9994463353214729  1.0000
  Se  Se9       1.0  0.0023379714935126594  0.009830241725669769  0.9990692176487724  1.0000
  Se  Se10      1.0  0.0024744294209764375  0.007722421345369693  0.9997128955142245  1.0000
  Se  Se11      1.0  0.0074957700054207495  0.007771151529684378  0.9998827708175155  1.0000
  Se  Se12      1.0  0.007337971355566058  0.009830241724644388  0.999129795288285  1.0000
  Se  Se13      1.0  0.0009578382606081304  0.0043902669618334665  0.9990527481878353  1.0000
  Se  Se14      1.0  0.00384124649603371  0.003117291750791073  0.9996963467276627  1.0000
  Se  Se15      1.0  0.00900346657969532  0.0031589245386891606  0.9999809498468665  1.0000
  Se  Se16      1.0  0.00595783821845778  0.004390267019238238  0.9991462647492222  1.0000
