data_image0
_chemical_formula_structural       COCa4Al8Zn8Ca4Al8Zn8
_chemical_formula_sum              "C1 O1 Ca8 Al16 Zn16"
_cell_length_a       5.925896167755127
_cell_length_b       12.201216347196453
_cell_length_c       105.55538177490234
_cell_angle_alpha    104.05424307761169
_cell_angle_beta     90.0
_cell_angle_gamma    75.94575692238831

_space_group_name_H-M_alt    "P 1"
_space_group_IT_number       1

loop_
  _space_group_symop_operation_xyz
  'x, y, z'

loop_
  _atom_site_type_symbol
  _atom_site_label
  _atom_site_symmetry_multiplicity
  _atom_site_fract_x
  _atom_site_fract_y
  _atom_site_fract_z
  _atom_site_occupancy
  C   C1        1.0  0.00915175626519344  0.004606114140453324  8.930755777285438e-05  1.0000
  O   O1        1.0  0.00915175626519344  0.004606114140453324  0.00020299162117419102  1.0000
  Ca  Ca1       1.0  3.4595431073805616e-06  0.0005347750229406969  0.9994667035090342  1.0000
  Ca  Ca2       1.0  0.0050034597317011485  0.0005347750229406969  0.9991860028150512  1.0000
  Ca  Ca3       1.0  0.007503460069838051  0.00553477472385443  0.999326353210115  1.0000
  Ca  Ca4       1.0  0.002503459881244283  0.00553477472385443  0.9990456522337938  1.0000
  Al  Al1       1.0  0.006253459662334683  0.0030347750359444475  0.9991158276701544  1.0000
  Al  Al2       1.0  0.0012534594737409156  0.0030347750359444475  0.9993965283641373  1.0000
  Al  Al3       1.0  0.0012534594737409156  0.0030347750359444475  0.9991158276701544  1.0000
  Al  Al4       1.0  0.006253459662334683  0.0030347750359444475  0.9993965283641373  1.0000
  Al  Al5       1.0  0.008753459523601754  0.00803477506195195  0.9992561780743435  1.0000
  Al  Al6       1.0  0.003753459649330933  0.00803477506195195  0.9989754770980224  1.0000
  Al  Al7       1.0  0.003753459649330933  0.00803477506195195  0.9992561780743435  1.0000
  Al  Al8       1.0  0.008753459523601754  0.00803477506195195  0.9989754770980224  1.0000
  Zn  Zn1       1.0  0.008050403027439415  0.004440888808651701  0.9990149467678864  1.0000
  Zn  Zn2       1.0  0.0030504028388456473  0.004440888808651701  0.9992956477442076  1.0000
  Zn  Zn3       1.0  0.00945651688142011  0.0016286611006903098  0.9992167082855213  1.0000
  Zn  Zn4       1.0  0.004456516692826343  0.0016286611006903098  0.9994974089795042  1.0000
  Zn  Zn5       1.0  0.005550403014435664  0.009440888834659203  0.9994359981483968  1.0000
  Zn  Zn6       1.0  0.0005504028258418964  0.009440888834659203  0.9991552971720755  1.0000
  Zn  Zn7       1.0  0.006956516787142917  0.006628661289244695  0.999076357717952  1.0000
  Zn  Zn8       1.0  0.0019565165985491496  0.006628661289244695  0.9993570586942732  1.0000
  Ca  Ca5       1.0  0.009996540561921834  0.000552165588992094  1.5499332638255382e-05  1.0000
  Ca  Ca6       1.0  0.0050034597317011485  0.0005347750229406969  0.9997474042030171  1.0000
  Ca  Ca7       1.0  0.0075472403087145585  0.005450865421458011  0.9998814115116659  1.0000
  Ca  Ca8       1.0  0.002503459881244283  0.00553477472385443  0.9996070539040979  1.0000
  Al  Al9       1.0  0.006253459662334683  0.0030347750359444475  0.9996772290581202  1.0000
  Al  Al10      1.0  0.0011346520684280678  0.003004601782916176  0.9999582313384807  1.0000
  Al  Al11      1.0  0.0012534594737409156  0.0030347750359444475  0.9996772290581202  1.0000
  Al  Al12      1.0  0.00640702715694458  0.0030060295947473667  0.9999583267555722  1.0000
  Al  Al13      1.0  0.00870150070726824  0.008063443781019667  0.9998210246229358  1.0000
  Al  Al14      1.0  0.003753459649330933  0.00803477506195195  0.9995368787683264  1.0000
  Al  Al15      1.0  0.0037784210307951135  0.00806465638077612  0.9998210405910604  1.0000
  Al  Al16      1.0  0.008753459523601754  0.00803477506195195  0.9995368787683264  1.0000
  Zn  Zn9       1.0  0.008050403027439415  0.004440888808651701  0.9995763484381905  1.0000
  Zn  Zn10      1.0  0.0030513063064947976  0.004442087429376109  0.9998727757024914  1.0000
  Zn  Zn11      1.0  0.0094681499577097  0.0016040144417263022  0.9997684485180689  1.0000
  Zn  Zn12      1.0  0.0044368646381088344  0.0016811887765209935  5.8116465764156685e-05  1.0000
  Zn  Zn13      1.0  0.00554004462621216  0.009465225354168074  1.4729822053954372e-06  1.0000
  Zn  Zn14      1.0  0.0005504028258418964  0.009440888834659203  0.9997166988423797  1.0000
  Zn  Zn15      1.0  0.006956516787142917  0.006628661289244695  0.999637759388256  1.0000
  Zn  Zn16      1.0  0.0019574877027030576  0.0066320669715633565  0.9999107942013628  1.0000
