data_image0
_chemical_formula_structural       HGa5Fe15Ga5Fe15
_chemical_formula_sum              "H1 Ga10 Fe30"
_cell_length_a       5.071893692016602
_cell_length_b       8.01936826084896
_cell_length_c       107.2706527709961
_cell_angle_alpha    75.0367829723337
_cell_angle_beta     90.0
_cell_angle_gamma    71.56505165896833

_space_group_name_H-M_alt    "P 1"
_space_group_IT_number       1

loop_
  _space_group_symop_operation_xyz
  'x, y, z'

loop_
  _atom_site_type_symbol
  _atom_site_label
  _atom_site_symmetry_multiplicity
  _atom_site_fract_x
  _atom_site_fract_y
  _atom_site_fract_z
  _atom_site_occupancy
  H   H1        1.0  0.00325697193983738  0.009458152923117729  0.00010242269358249023  1.0000
  Ga  Ga1       1.0  0.008477474590543089  0.004041087461778242  0.9989416906606625  1.0000
  Ga  Ga2       1.0  0.006477474627182045  0.008041087388500331  0.999057505848356  1.0000
  Ga  Ga3       1.0  0.0004774744122736123  4.108730049686861e-05  0.9994049504976299  1.0000
  Ga  Ga4       1.0  0.004477474621142972  0.0020410873711986027  0.9991733203015144  1.0000
  Ga  Ga5       1.0  0.002477474594172629  0.006041087425139287  0.9992891354867521  1.0000
  Fe  Fe1       1.0  0.0004774745212622853  0.005041087189021576  0.999115412800795  1.0000
  Fe  Fe2       1.0  0.008477475067340848  0.009041087624618045  0.9992312279786658  1.0000
  Fe  Fe3       1.0  0.002477474452818682  0.001041087325908783  0.998999598167521  1.0000
  Fe  Fe4       1.0  0.006477474884881207  0.0030410872256605307  0.9993470429948385  1.0000
  Fe  Fe5       1.0  0.004477474921520162  0.00704108715238262  0.9988837831623988  1.0000
  Fe  Fe6       1.0  0.00947747463583291  0.0020410873711986027  0.9991733203015144  1.0000
  Fe  Fe7       1.0  0.007477474608862567  0.006041087425139287  0.9992891354867521  1.0000
  Fe  Fe8       1.0  0.0014774746124921073  0.008041087388500331  0.999057505848356  1.0000
  Fe  Fe9       1.0  0.005477474656493839  4.108730049686861e-05  0.9994049504976299  1.0000
  Fe  Fe10      1.0  0.0034774745758531516  0.004041087461778242  0.9989416906606625  1.0000
  Fe  Fe11      1.0  0.005477474903200684  0.005041087189021576  0.999115412800795  1.0000
  Fe  Fe12      1.0  0.00347747468540245  0.009041087624618045  0.9992312279786658  1.0000
  Fe  Fe13      1.0  0.00747747483475708  0.001041087325908783  0.998999598167521  1.0000
  Fe  Fe14      1.0  0.001477474502942808  0.0030410872256605307  0.9993470429948385  1.0000
  Fe  Fe15      1.0  0.009477475303458561  0.00704108715238262  0.9988837831623988  1.0000
  Ga  Ga6       1.0  0.008477474590543089  0.004041087461778242  0.9995207656807956  1.0000
  Ga  Ga7       1.0  0.006477474627182045  0.008041087388500331  0.999636580868489  1.0000
  Ga  Ga8       1.0  0.0005060930917062238  0.00995891279062345  2.3796366643315254e-06  1.0000
  Ga  Ga9       1.0  0.004460663135841665  0.002066502338713365  0.9997421086879277  1.0000
  Ga  Ga10      1.0  0.0025082866759019644  0.005982537865790303  0.9998845220543985  1.0000
  Fe  Fe16      1.0  0.0004774745212622853  0.005041087189021576  0.9996944883765754  1.0000
  Fe  Fe17      1.0  0.00859185793515696  0.009027796843604488  0.9998172689848372  1.0000
  Fe  Fe18      1.0  0.002477474452818682  0.001041087325908783  0.9995786731876541  1.0000
  Fe  Fe19      1.0  0.0066549895937899  0.003066068886642134  0.9999086630050832  1.0000
  Fe  Fe20      1.0  0.004477474921520162  0.00704108715238262  0.9994628581825319  1.0000
  Fe  Fe21      1.0  0.009522526055710967  0.0019400816591529128  0.9997572215704353  1.0000
  Fe  Fe22      1.0  0.007484347744289581  0.0060341499407393405  0.9998601730690156  1.0000
  Fe  Fe23      1.0  0.0014774746124921073  0.008041087388500331  0.999636580868489  1.0000
  Fe  Fe24      1.0  0.005363911929799424  0.0002452700080734345  0.9999600882026534  1.0000
  Fe  Fe25      1.0  0.0034774745758531516  0.004041087461778242  0.9995207656807956  1.0000
  Fe  Fe26      1.0  0.005477474903200684  0.005041087189021576  0.9996944883765754  1.0000
  Fe  Fe27      1.0  0.003377509430860954  0.009029321431242002  0.9998177274147805  1.0000
  Fe  Fe28      1.0  0.00747747483475708  0.001041087325908783  0.9995786731876541  1.0000
  Fe  Fe29      1.0  0.0012793491704323394  0.0030627749427911215  0.9999089655147628  1.0000
  Fe  Fe30      1.0  0.009477475303458561  0.00704108715238262  0.9994628581825319  1.0000
