data_image0
_chemical_formula_structural       HAs12Rh12
_chemical_formula_sum              "H1 As12 Rh12"
_cell_length_a       5.742440223693848
_cell_length_b       9.570528652202196
_cell_length_c       98.71577453613281
_cell_angle_alpha    80.38190960371574
_cell_angle_beta     90.0
_cell_angle_gamma    90.0

_space_group_name_H-M_alt    "P 1"
_space_group_IT_number       1

loop_
  _space_group_symop_operation_xyz
  'x, y, z'

loop_
  _atom_site_type_symbol
  _atom_site_label
  _atom_site_symmetry_multiplicity
  _atom_site_fract_x
  _atom_site_fract_y
  _atom_site_fract_z
  _atom_site_occupancy
  H   H1        1.0  0.007335923857218896  0.003092645084139837  0.9999499038835824  1.0000
  As  As1       1.0  0.007045732885789566  0.004537209470277114  0.9996414275436415  1.0000
  As  As2       1.0  0.0069534679832795945  0.007791816661599809  0.9994036387757649  1.0000
  As  As3       1.0  0.00694254337872433  0.0013114575889595006  0.9998975609114367  1.0000
  As  As4       1.0  0.0028280356440005083  0.009058605010358425  0.9999272813625824  1.0000
  As  As5       1.0  0.0030104820542740584  0.00218235217408409  0.9996898402565889  1.0000
  As  As6       1.0  0.0030465322762122005  0.0055575080125176346  0.9994422825862718  1.0000
  As  As7       1.0  0.0015802964338250255  0.0055339975432473565  0.9998227323549805  1.0000
  As  As8       1.0  0.001953468015716069  0.008890841382698552  0.9995634882841319  1.0000
  As  As9       1.0  0.001953468015716069  0.0022241746423367166  0.9993210771903119  1.0000
  As  As10      1.0  0.0079992095360951  0.007707533340704535  0.9997828002661524  1.0000
  As  As11      1.0  0.008046532405958099  0.0011251496251413178  0.9995248442628437  1.0000
  As  As12      1.0  0.008046532405958099  0.004458483291418891  0.9992824330779049  1.0000
  Rh  Rh1       1.0  0.004517419671201061  0.0068470148706910065  0.9999146634184864  1.0000
  Rh  Rh2       1.0  0.004903169144744108  0.009799560440329555  0.9997112904172856  1.0000
  Rh  Rh3       1.0  0.005029270155454269  0.003155935152135125  0.9994565985354018  1.0000
  Rh  Rh4       1.0  0.0049707301040375265  0.0068600557570058585  0.9996317340131726  1.0000
  Rh  Rh5       1.0  0.0049707301040375265  0.00019338910300554878  0.9993893229179538  1.0000
  Rh  Rh6       1.0  0.004845936931972462  0.00362703914423689  0.9998363444076183  1.0000
  Rh  Rh7       1.0  2.9269901537492778e-05  0.0068600557570058585  0.9992681171351699  1.0000
  Rh  Rh8       1.0  0.009911140538057275  0.00017739830440731676  0.9997529591135748  1.0000
  Rh  Rh9       1.0  2.9269901537492778e-05  0.0035267223868249414  0.9995105283153125  1.0000
  Rh  Rh10      1.0  0.009970730233783424  0.006489268522316042  0.9995778039313616  1.0000
  Rh  Rh11      1.0  0.009970730233783424  0.0098226022872925  0.9993353930467243  1.0000
  Rh  Rh12      1.0  0.009825911106830074  0.003171627682702028  0.9998088440416185  1.0000
