data_image0
_chemical_formula_structural       HGa9Pt15
_chemical_formula_sum              "H1 Ga9 Pt15"
_cell_length_a       6.865279252022142
_cell_length_b       6.865279269885798
_cell_length_c       103.09203338623047
_cell_angle_alpha    92.64495717617372
_cell_angle_beta     92.64495718306087
_cell_angle_gamma    73.09430761702976

_space_group_name_H-M_alt    "P 1"
_space_group_IT_number       1

loop_
  _space_group_symop_operation_xyz
  'x, y, z'

loop_
  _atom_site_type_symbol
  _atom_site_label
  _atom_site_symmetry_multiplicity
  _atom_site_fract_x
  _atom_site_fract_y
  _atom_site_fract_z
  _atom_site_occupancy
  H   H1        1.0  0.00474584907705323  0.00030604765504451005  8.982024635924972e-05  1.0000
  Ga  Ga1       1.0  0.00392725431262222  0.006987452852853179  0.9993571196555318  1.0000
  Ga  Ga2       1.0  0.00892725449421243  0.001987453104517628  0.9998921112376087  1.0000
  Ga  Ga3       1.0  0.001427254363694466  0.004487452924991821  0.9996246154376106  1.0000
  Ga  Ga4       1.0  0.007322745528486347  0.006091961990928222  0.9997583633465148  1.0000
  Ga  Ga5       1.0  0.009822745619281453  0.00859196133454332  0.9994908675630765  1.0000
  Ga  Ga6       1.0  0.0048227454376912424  0.003591962104106785  2.5859128283779098e-05  1.0000
  Ga  Ga7       1.0  0.003031763187553197  0.0003829442154227329  0.9997583633288118  1.0000
  Ga  Ga8       1.0  0.005531763278348302  0.0028829442380457534  0.9994908675474602  1.0000
  Ga  Ga9       1.0  0.0005317633450259572  0.007882944186164611  2.5859128251181452e-05  1.0000
  Pt  Pt1       1.0  0.00392725431262222  0.006987452852853179  0.9998921112362772  1.0000
  Pt  Pt2       1.0  0.006427254403417325  0.009487453282880953  0.9996246154561775  1.0000
  Pt  Pt3       1.0  0.00892725449421243  0.001987453104517628  0.9993571196568631  1.0000
  Pt  Pt4       1.0  0.002677254267224667  0.0007374531484532487  2.585911922366211e-05  1.0000
  Pt  Pt5       1.0  0.005177254358019772  0.003237453035274685  0.9997583633374547  1.0000
  Pt  Pt6       1.0  0.007677254448814877  0.005737452922096122  0.9994908675556857  1.0000
  Pt  Pt7       1.0  0.007677254448814877  0.005737452922096122  2.585913643116732e-05  1.0000
  Pt  Pt8       1.0  0.00017725444243084612  0.008237452706660384  0.9997583633367042  1.0000
  Pt  Pt9       1.0  0.002677254267224667  0.0007374531484532487  0.9994908675384782  1.0000
  Pt  Pt10      1.0  0.006633753683194233  0.00969395268423377  0.9999142066623814  1.0000
  Pt  Pt11      1.0  0.00913375377398934  0.0021939525058704483  0.9996467102848977  1.0000
  Pt  Pt12      1.0  0.001633753785338726  0.00469395228530472  0.9993792144852095  1.0000
  Pt  Pt13      1.0  0.0037207553165800144  0.006780953912626853  0.9996025206105317  1.0000
  Pt  Pt14      1.0  0.006220755123640416  0.009280953881528132  0.9993350245390584  1.0000
  Pt  Pt15      1.0  0.0012207552257849092  0.004280954025805417  0.9998700163923007  1.0000
