data_image0
_chemical_formula_structural       HIn36Rh12
_chemical_formula_sum              "H1 In36 Rh12"
_cell_length_a       10.113171577453613
_cell_length_b       10.222073336861468
_cell_length_c       32.57460403442383
_cell_angle_alpha    90.99504682362948
_cell_angle_beta     90.0
_cell_angle_gamma    60.351796523819125

_space_group_name_H-M_alt    "P 1"
_space_group_IT_number       1

loop_
  _space_group_symop_operation_xyz
  'x, y, z'

loop_
  _atom_site_type_symbol
  _atom_site_label
  _atom_site_symmetry_multiplicity
  _atom_site_fract_x
  _atom_site_fract_y
  _atom_site_fract_z
  _atom_site_occupancy
  H   H1        1.0  0.006230606051680248  0.008144478040352097  0.9999546351677577  1.0000
  In  In1       1.0  0.005152871420742361  0.005299938874145605  0.9985632991242976  1.0000
  In  In2       1.0  0.008463500604814832  0.008559186566251523  0.9999478015407891  1.0000
  In  In3       1.0  0.0018195377534655634  0.00196660556038518  0.9972867288226119  1.0000
  In  In4       1.0  0.0034862041319965315  0.008633271978196308  0.9979250137708752  1.0000
  In  In5       1.0  0.006819538077622574  0.00196660556038518  0.9992015840191301  1.0000
  In  In6       1.0  0.0001528710965853508  0.005299938874145605  0.9966484436990559  1.0000
  In  In7       1.0  0.008486204456153541  0.008633271978196308  0.9979250137708752  1.0000
  In  In8       1.0  0.0018195377534655634  0.00196660556038518  0.9992015840191301  1.0000
  In  In9       1.0  0.005152871420742361  0.005299938874145605  0.9966484436990559  1.0000
  In  In10      1.0  0.0001528710965853508  0.005299938874145605  0.9985632991242976  1.0000
  In  In11      1.0  0.00358299855232337  0.008559186566251523  0.9999478006258947  1.0000
  In  In12      1.0  0.006819538077622574  0.00196660556038518  0.9972867288226119  1.0000
  In  In13      1.0  0.008137132696071293  0.004331415910924275  0.9972100640021058  1.0000
  In  In14      1.0  0.0014704659785394465  0.007664749434394423  0.9984866340762106  1.0000
  In  In15      1.0  0.004766946053588908  0.001071786337413589  0.9998466921065373  1.0000
  In  In16      1.0  0.0024823189677400962  0.0086766022010703  0.9969592893106625  1.0000
  In  In17      1.0  0.005815652386355384  0.002009935363839725  0.9982358595566317  1.0000
  In  In18      1.0  0.009116294971101621  0.005475408032039404  0.9995664452981726  1.0000
  In  In19      1.0  0.009446760134256464  0.0086766022010703  0.9969592893106625  1.0000
  In  In20      1.0  0.00278009327291797  0.002009935363839725  0.9982358595566317  1.0000
  In  In21      1.0  0.006013978713872381  0.005475404257264399  0.9995664439052603  1.0000
  In  In22      1.0  0.0011567564194923021  0.00525660907069106  0.9976141683902777  1.0000
  In  In23      1.0  0.004490089613553999  0.00858994259416121  0.9988907386931063  1.0000
  In  In24      1.0  0.007711129170266837  0.0019271258177269931  0.00015458681362185342  1.0000
  In  In25      1.0  0.004192315532929716  0.00525660907069106  0.9976141683902777  1.0000
  In  In26      1.0  0.007525649095351652  0.00858994259416121  0.9988907386931063  1.0000
  In  In27      1.0  0.0009674278513908403  0.001927126237146438  0.00015458773080187843  1.0000
  In  In28      1.0  0.0071252799293954165  0.006355121444276027  0.9979850846353221  1.0000
  In  In29      1.0  0.0004528101244210726  0.009700061142631172  0.9992669573290343  1.0000
  In  In30      1.0  0.003791946525623997  0.0030217883402253233  0.9967085145635028  1.0000
  In  In31      1.0  0.006513796157210209  0.0075780889886464435  0.9965883728323233  1.0000
  In  In32      1.0  0.009847129261260912  0.0009114227805450364  0.9978649433104446  1.0000
  In  In33      1.0  0.00318046238507855  0.00424475588459574  0.9991415136109875  1.0000
  In  In34      1.0  0.005501942971114887  0.009601795360837084  0.9973633939275581  1.0000
  In  In35      1.0  0.008835276389730175  0.00293512852360651  0.9986399641735274  1.0000
  In  In36      1.0  0.0022020784166427994  0.006201533398833453  2.9031118374768433e-05  1.0000
  Rh  Rh1       1.0  0.009636136324915175  0.0013334086532365117  0.9970442327630283  1.0000
  Rh  Rh2       1.0  0.002969469448732812  0.004666741757287215  0.9983208030635713  1.0000
  Rh  Rh3       1.0  0.006250088923744354  0.008105512296223888  0.9995763047493202  1.0000
  Rh  Rh4       1.0  0.005269332814303508  0.0069666056358806796  0.9972867286217465  1.0000
  Rh  Rh5       1.0  0.008602666180491365  0.00029993890350496683  0.9985632988682872  1.0000
  Rh  Rh6       1.0  0.0019696693898146483  0.0036342103537092356  0.9997945572761531  1.0000
  Rh  Rh7       1.0  0.008369742852882672  0.0069666056358806796  0.9972867286217465  1.0000
  Rh  Rh8       1.0  0.0017030757549366272  0.00029993890350496683  0.9985632988682872  1.0000
  Rh  Rh9       1.0  0.005001798967309348  0.0036342120313870158  0.9997945572852956  1.0000
  Rh  Rh10      1.0  0.007336272865741154  0.005933135571584551  0.9988057951827383  1.0000
  Rh  Rh11      1.0  0.0005807546096937811  0.009444175855688144  5.1466302277530756e-05  1.0000
  Rh  Rh12      1.0  0.004002939198464357  0.0025998022578241253  0.9975292248810526  1.0000
