data_image0
_chemical_formula_structural       HV3Si6V3Si6
_chemical_formula_sum              "H1 V6 Si12"
_cell_length_a       4.582751862097735
_cell_length_b       6.397009372711182
_cell_length_c       106.66201782226562
_cell_angle_alpha    90.0
_cell_angle_beta     119.99999919767241
_cell_angle_gamma    90.0

_space_group_name_H-M_alt    "P 1"
_space_group_IT_number       1

loop_
  _space_group_symop_operation_xyz
  'x, y, z'

loop_
  _atom_site_type_symbol
  _atom_site_label
  _atom_site_symmetry_multiplicity
  _atom_site_fract_x
  _atom_site_fract_y
  _atom_site_fract_z
  _atom_site_occupancy
  H   H1        1.0  0.009729371096872885  0.00833618990915807  0.00013146935322321484  1.0000
  V   V1        1.0  0.005040743216437463  0.003336125058803246  0.9997754355778324  1.0000
  V   V2        1.0  0.005040743216437463  0.00666945833778403  0.9995606100508841  1.0000
  V   V3        1.0  4.074320015777148e-05  2.7916001132815037e-06  0.9995606100281818  1.0000
  Si  Si1       1.0  0.006783905614009099  2.7916001132815037e-06  0.9997054705886227  1.0000
  Si  Si2       1.0  0.008412324762523349  0.00666945833778403  0.9994157493068689  1.0000
  Si  Si3       1.0  0.008412324762523349  0.003336125058803246  0.9996355052841462  1.0000
  Si  Si4       1.0  0.0032975805842036187  2.7916001132815037e-06  0.9994157492286956  1.0000
  Si  Si5       1.0  0.0016691619050137846  0.00666945833778403  0.9997054702411227  1.0000
  Si  Si6       1.0  0.0016691619050137846  0.003336125058803246  0.9994857145432544  1.0000
  V   V4        1.0  0.004779223449664514  0.0033360819649970582  0.00018261512204583797  1.0000
  V   V5        1.0  0.00513529565981396  0.006675170596498782  0.9999908128653032  1.0000
  V   V6        1.0  0.009959256520740867  0.009997208639468626  0.9999908632056158  1.0000
  Si  Si7       1.0  0.006415248938981399  0.0099709132648121  0.00013781613130955898  1.0000
  Si  Si8       1.0  0.008412324762523349  0.00666945833778403  0.9998454009195835  1.0000
  Si  Si9       1.0  0.008479381835015513  0.003336350718936997  7.088610409857684e-05  1.0000
  Si  Si10      1.0  0.0032975805842036187  2.7916001132815037e-06  0.999845401120819  1.0000
  Si  Si11      1.0  0.0021009971555636378  0.006700842858011789  0.00013774382899158942  1.0000
  Si  Si12      1.0  0.0016691619050137846  0.003336125058803246  0.9999153661559689  1.0000
