data_image0
_chemical_formula_structural       COAl8Ir4Os4Al8Ir4Os4Al8Ir4Os4Al8Ir4Os4
_chemical_formula_sum              "C1 O1 Al32 Ir16 Os16"
_cell_length_a       8.566994667053223
_cell_length_b       8.566994667053223
_cell_length_c       106.3466796875
_cell_angle_alpha    90.0
_cell_angle_beta     90.0
_cell_angle_gamma    90.0

_space_group_name_H-M_alt    "P 1"
_space_group_IT_number       1

loop_
  _space_group_symop_operation_xyz
  'x, y, z'

loop_
  _atom_site_type_symbol
  _atom_site_label
  _atom_site_symmetry_multiplicity
  _atom_site_fract_x
  _atom_site_fract_y
  _atom_site_fract_z
  _atom_site_occupancy
  C   C1        1.0  0.004999999304252575  0.006249997390947157  0.0001628684014976033  1.0000
  O   O1        1.0  0.004999999304252575  0.006249997390947157  0.00027570713190232466  1.0000
  Al  Al1       1.0  0.002500000956652709  0.001250000043484214  0.9997254491278186  1.0000
  Al  Al2       1.0  9.000000365140533e-10  0.0037499999130315717  0.9997254491278186  1.0000
  Al  Al3       1.0  0.009999999478189431  0.003749997303978729  0.0  1.0000
  Al  Al4       1.0  0.0025000011740737792  0.0012500062399847158  0.0  1.0000
  Al  Al5       1.0  0.002500000956652709  0.001250000043484214  0.999155823353054  1.0000
  Al  Al6       1.0  9.000000365140533e-10  0.0037499999130315717  0.999155823353054  1.0000
  Al  Al7       1.0  9.000000365140533e-10  0.0037499999130315717  0.9994406365206737  1.0000
  Al  Al8       1.0  0.002500000956652709  0.001250000043484214  0.9994406365206737  1.0000
  Ir  Ir1       1.0  0.002500000956652709  0.0037499999130315717  0.9995830425440086  1.0000
  Ir  Ir2       1.0  0.00999999860850515  0.0012500071096689968  0.9998718423695997  1.0000
  Ir  Ir3       1.0  0.002500000956652709  0.0037499999130315717  0.9990134170494814  1.0000
  Ir  Ir4       1.0  9.000000365140533e-10  0.001250000043484214  0.9992982299368638  1.0000
  Os  Os1       1.0  9.000000365140533e-10  0.001250000043484214  0.9995830425440086  1.0000
  Os  Os2       1.0  0.0025000035657055516  0.003749987302609498  0.9998803750394933  1.0000
  Os  Os3       1.0  9.000000365140533e-10  0.001250000043484214  0.9990134170494814  1.0000
  Os  Os4       1.0  0.002500000956652709  0.0037499999130315717  0.9992982299368638  1.0000
  Al  Al9       1.0  0.002500000956652709  0.0062499999999999995  0.9997254491278186  1.0000
  Al  Al10      1.0  9.000000365140533e-10  0.008750000521810568  0.9997254491278186  1.0000
  Al  Al11      1.0  0.009999999478189431  0.008749997043073445  0.0  1.0000
  Al  Al12      1.0  0.0025000011740737792  0.006250006087789966  0.0  1.0000
  Al  Al13      1.0  0.002500000956652709  0.0062499999999999995  0.999155823353054  1.0000
  Al  Al14      1.0  9.000000365140533e-10  0.008750000521810568  0.999155823353054  1.0000
  Al  Al15      1.0  9.000000365140533e-10  0.008750000521810568  0.9994406365206737  1.0000
  Al  Al16      1.0  0.002500000956652709  0.0062499999999999995  0.9994406365206737  1.0000
  Ir  Ir5       1.0  0.002500000956652709  0.008750000521810568  0.9995830425440086  1.0000
  Ir  Ir6       1.0  0.00999999860850515  0.006250007392316388  0.9998718423695997  1.0000
  Ir  Ir7       1.0  0.002500000956652709  0.008750000521810568  0.9990134170494814  1.0000
  Ir  Ir8       1.0  9.000000365140533e-10  0.0062499999999999995  0.9992982299368638  1.0000
  Os  Os5       1.0  9.000000365140533e-10  0.0062499999999999995  0.9995830425440086  1.0000
  Os  Os6       1.0  0.0025000035657055516  0.008749987476546353  0.9998803750394933  1.0000
  Os  Os7       1.0  9.000000365140533e-10  0.0062499999999999995  0.9990134170494814  1.0000
  Os  Os8       1.0  0.002500000956652709  0.008750000521810568  0.9992982299368638  1.0000
  Al  Al17      1.0  0.007500000695747425  0.001250000043484214  0.9997254491278186  1.0000
  Al  Al18      1.0  0.005000001043621137  0.0037499999130315717  0.9997254491278186  1.0000
  Al  Al19      1.0  0.004999999304252575  0.003749997303978729  0.0  1.0000
  Al  Al20      1.0  0.007500001565431705  0.0012500062399847158  0.0  1.0000
  Al  Al21      1.0  0.007500000695747425  0.001250000043484214  0.999155823353054  1.0000
  Al  Al22      1.0  0.005000001043621137  0.0037499999130315717  0.999155823353054  1.0000
  Al  Al23      1.0  0.005000001043621137  0.0037499999130315717  0.9994406365206737  1.0000
  Al  Al24      1.0  0.007500000695747425  0.001250000043484214  0.9994406365206737  1.0000
  Ir  Ir9       1.0  0.007500000695747425  0.0037499999130315717  0.9995830425440086  1.0000
  Ir  Ir10      1.0  0.0049999988694104346  0.0012500071096689968  0.9998718423695997  1.0000
  Ir  Ir11      1.0  0.007500000695747425  0.0037499999130315717  0.9990134170494814  1.0000
  Ir  Ir12      1.0  0.005000001043621137  0.001250000043484214  0.9992982299368638  1.0000
  Os  Os9       1.0  0.005000001043621137  0.001250000043484214  0.9995830425440086  1.0000
  Os  Os10      1.0  0.007500003304800267  0.003749987302609498  0.9998803750394933  1.0000
  Os  Os11      1.0  0.005000001043621137  0.001250000043484214  0.9990134170494814  1.0000
  Os  Os12      1.0  0.007500000695747425  0.0037499999130315717  0.9992982299368638  1.0000
  Al  Al25      1.0  0.007500000695747425  0.0062499999999999995  0.9997254491278186  1.0000
  Al  Al26      1.0  0.005000001043621137  0.008750000521810568  0.9997254491278186  1.0000
  Al  Al27      1.0  0.004999999304252575  0.008749997043073445  0.0  1.0000
  Al  Al28      1.0  0.007500001565431705  0.006250006087789966  0.0  1.0000
  Al  Al29      1.0  0.007500000695747425  0.0062499999999999995  0.999155823353054  1.0000
  Al  Al30      1.0  0.005000001043621137  0.008750000521810568  0.999155823353054  1.0000
  Al  Al31      1.0  0.005000001043621137  0.008750000521810568  0.9994406365206737  1.0000
  Al  Al32      1.0  0.007500000695747425  0.0062499999999999995  0.9994406365206737  1.0000
  Ir  Ir13      1.0  0.007500000695747425  0.008750000521810568  0.9995830425440086  1.0000
  Ir  Ir14      1.0  0.0049999988694104346  0.006250007392316388  0.9998718423695997  1.0000
  Ir  Ir15      1.0  0.007500000695747425  0.008750000521810568  0.9990134170494814  1.0000
  Ir  Ir16      1.0  0.005000001043621137  0.0062499999999999995  0.9992982299368638  1.0000
  Os  Os13      1.0  0.005000001043621137  0.0062499999999999995  0.9995830425440086  1.0000
  Os  Os14      1.0  0.007500003304800267  0.008749987476546353  0.9998803750394933  1.0000
  Os  Os15      1.0  0.005000001043621137  0.0062499999999999995  0.9990134170494814  1.0000
  Os  Os16      1.0  0.007500000695747425  0.008750000521810568  0.9992982299368638  1.0000
