data_image0
_chemical_formula_structural       HAl4Cu4Pt8Al4Cu4Pt8
_chemical_formula_sum              "H1 Al8 Cu8 Pt16"
_cell_length_a       5.694042682647705
_cell_length_b       8.800715892808698
_cell_length_c       110.26285552978516
_cell_angle_alpha    109.60309956283503
_cell_angle_beta     90.0
_cell_angle_gamma    49.68438028522819

_space_group_name_H-M_alt    "P 1"
_space_group_IT_number       1

loop_
  _space_group_symop_operation_xyz
  'x, y, z'

loop_
  _atom_site_type_symbol
  _atom_site_label
  _atom_site_symmetry_multiplicity
  _atom_site_fract_x
  _atom_site_fract_y
  _atom_site_fract_z
  _atom_site_occupancy
  H   H1        1.0  0.0086371217284668  0.009749777589135268  0.0003154256972689139  1.0000
  Al  Al1       1.0  0.00812500075996912  0.00775022250977775  0.999161007593792  1.0000
  Al  Al2       1.0  0.0056250005025961815  0.005250222583962513  0.9993131548958275  1.0000
  Al  Al3       1.0  0.0006249999981599756  0.0002502225584615002  0.9996174494952424  1.0000
  Al  Al4       1.0  0.0031250002452232447  0.0027502226581472755  0.9994653019275787  1.0000
  Cu  Cu1       1.0  0.0006250003194080075  0.005250222583962513  0.9993131548958275  1.0000
  Cu  Cu2       1.0  0.00812500042841142  0.0027502226581472755  0.9994653019275787  1.0000
  Cu  Cu3       1.0  0.0031250005767809452  0.00775022250977775  0.999161007593792  1.0000
  Cu  Cu4       1.0  0.00562500034490902  0.0002502225584615002  0.9996174494952424  1.0000
  Pt  Pt1       1.0  0.004375000069242494  0.009000222781788548  0.9993892282970822  1.0000
  Pt  Pt2       1.0  0.001874999811869557  0.00650022285597331  0.999541375869402  1.0000
  Pt  Pt3       1.0  0.006875000127154801  0.0015002225406880675  0.9992370812284271  1.0000
  Pt  Pt4       1.0  0.009375000229976147  0.0040002226210548945  0.9990849339305303  1.0000
  Pt  Pt5       1.0  0.009375000906674149  0.009000222781788548  0.9993892282970822  1.0000
  Pt  Pt6       1.0  0.006874999995057731  0.00650022285597331  0.999541375869402  1.0000
  Pt  Pt7       1.0  0.0018750002710883654  0.0015002225406880675  0.9992370812284271  1.0000
  Pt  Pt8       1.0  0.004375000046787973  0.0040002226210548945  0.9990849339305303  1.0000
  Al  Al5       1.0  0.00812500075996912  0.00775022250977775  0.9997695962858532  1.0000
  Al  Al6       1.0  0.0056250005025961815  0.005250222583962513  0.999921743858173  1.0000
  Al  Al7       1.0  0.0012922384206130576  0.009582090969352317  0.00020437193611209196  1.0000
  Al  Al8       1.0  0.003192276928620468  0.002683609377638505  7.186275604724373e-05  1.0000
  Cu  Cu5       1.0  0.0006250003194080075  0.005250222583962513  0.999921743858173  1.0000
  Cu  Cu6       1.0  0.008198878437180705  0.0026764826947522137  9.97501325809789e-05  1.0000
  Cu  Cu7       1.0  0.0031250005767809452  0.00775022250977775  0.9997695962858532  1.0000
  Cu  Cu8       1.0  0.006132815842353115  0.009739476416604536  0.00021462894258058487  1.0000
  Pt  Pt9       1.0  0.004332345748005068  0.00907423630149669  0.9999998894977743  1.0000
  Pt  Pt10      1.0  0.0022804726849549057  0.006133604848906015  0.00013853217020359107  1.0000
  Pt  Pt11      1.0  0.006875000127154801  0.0015002225406880675  0.9998456699204883  1.0000
  Pt  Pt12      1.0  0.009375000229976147  0.0040002226210548945  0.9996935228928758  1.0000
  Pt  Pt13      1.0  0.009268047712231076  0.009074755594836772  0.9999999217829519  1.0000
  Pt  Pt14      1.0  0.0072030714041331646  0.006131553022006327  0.00013847776613792586  1.0000
  Pt  Pt15      1.0  0.0018750002710883654  0.0015002225406880675  0.9998456699204883  1.0000
  Pt  Pt16      1.0  0.004375000046787973  0.0040002226210548945  0.9996935228928758  1.0000
