data_image0
_chemical_formula_structural       HV3Si6V3Si6
_chemical_formula_sum              "H1 V6 Si12"
_cell_length_a       4.582751862097735
_cell_length_b       6.397009372711182
_cell_length_c       106.66201782226562
_cell_angle_alpha    90.0
_cell_angle_beta     119.99999919767241
_cell_angle_gamma    90.0

_space_group_name_H-M_alt    "P 1"
_space_group_IT_number       1

loop_
  _space_group_symop_operation_xyz
  'x, y, z'

loop_
  _atom_site_type_symbol
  _atom_site_label
  _atom_site_symmetry_multiplicity
  _atom_site_fract_x
  _atom_site_fract_y
  _atom_site_fract_z
  _atom_site_occupancy
  H   H1        1.0  0.003811397658321974  0.003336216487554211  0.00018743714054725226  1.0000
  V   V1        1.0  0.005040743216437463  0.003336125058803246  0.9996954910891038  1.0000
  V   V2        1.0  0.005040743216437463  0.00666945833778403  0.9994806650033377  1.0000
  V   V3        1.0  4.074320015777148e-05  2.7916001132815037e-06  0.9994806649806351  1.0000
  Si  Si1       1.0  0.006783905614009099  2.7916001132815037e-06  0.9996255255410761  1.0000
  Si  Si2       1.0  0.008412324762523349  0.00666945833778403  0.9993358045387314  1.0000
  Si  Si3       1.0  0.008412324762523349  0.003336125058803246  0.9995555605160086  1.0000
  Si  Si4       1.0  0.0032975805842036187  2.7916001132815037e-06  0.9993358044605579  1.0000
  Si  Si5       1.0  0.0016691619050137846  0.00666945833778403  0.9996255257523939  1.0000
  Si  Si6       1.0  0.0016691619050137846  0.003336125058803246  0.9994057697751167  1.0000
  V   V4        1.0  0.004779223449664514  0.0033360819649970582  0.00010267007449928637  1.0000
  V   V5        1.0  0.00513529565981396  0.006675170596498782  0.9999108678177566  1.0000
  V   V6        1.0  0.009959256520740867  0.009997208639468626  0.9999109181580692  1.0000
  Si  Si7       1.0  0.006415248938981399  0.0099709132648121  5.7871642580907086e-05  1.0000
  Si  Si8       1.0  0.008412324762523349  0.00666945833778403  0.9997654564308548  1.0000
  Si  Si9       1.0  0.008479381835015513  0.003336350718936997  0.9999909416153699  1.0000
  Si  Si10      1.0  0.0032975805842036187  2.7916001132815037e-06  0.9997654560732725  1.0000
  Si  Si11      1.0  0.0021009971555636378  0.006700842858011789  5.779934026293752e-05  1.0000
  Si  Si12      1.0  0.0016691619050137846  0.003336125058803246  0.9998354216672402  1.0000
