data_image0
_chemical_formula_structural       COIn9Ni13
_chemical_formula_sum              "C1 O1 In9 Ni13"
_cell_length_a       6.826261852111101
_cell_length_b       6.826261627288937
_cell_length_c       99.97820281982422
_cell_angle_alpha    89.90257484505359
_cell_angle_beta     89.90257484826228
_cell_angle_gamma    77.562233531014

_space_group_name_H-M_alt    "P 1"
_space_group_IT_number       1

loop_
  _space_group_symop_operation_xyz
  'x, y, z'

loop_
  _atom_site_type_symbol
  _atom_site_label
  _atom_site_symmetry_multiplicity
  _atom_site_fract_x
  _atom_site_fract_y
  _atom_site_fract_z
  _atom_site_occupancy
  C   C1        1.0  0.002708006192363203  0.0027100520590086505  9.835592842734918e-05  1.0000
  O   O1        1.0  0.002708006192363203  0.0027100520590086505  0.00021838233398617808  1.0000
  In  In1       1.0  0.006842087380716751  0.0010687449768729158  0.9997839975164678  1.0000
  In  In2       1.0  0.006757334813814251  0.0067533262306601  0.9999670439402271  1.0000
  In  In3       1.0  0.009179067819131224  0.009179068424902572  0.9994004787371046  1.0000
  In  In4       1.0  0.0010701537628705448  0.0068412147481139276  0.9997838841807059  1.0000
  In  In5       1.0  0.00134876871774782  0.001353123160504082  0.9999275757987942  1.0000
  In  In6       1.0  0.005369618107485489  0.005369618013617304  0.9996495395891786  1.0000
  In  In7       1.0  0.0038404219169972604  0.009630382567582038  0.9995070305128047  1.0000
  In  In8       1.0  0.00963038225678892  0.003840422188924765  0.9995070305128091  1.0000
  In  In9       1.0  0.004020140897094556  0.00402014104071736  0.9993603973687114  1.0000
  Ni  Ni1       1.0  0.004018638357874888  0.008966741775206687  0.9997761928471512  1.0000
  Ni  Ni2       1.0  0.0029002884524071703  0.0075804885756596005  0.9999964432072262  1.0000
  Ni  Ni3       1.0  0.006537181056459945  0.006537180989516738  0.999407484973825  1.0000
  Ni  Ni4       1.0  0.008962856892994944  0.004021102255014105  0.9997765328326718  1.0000
  Ni  Ni5       1.0  0.004074343469406374  0.004074080810439385  0.999922649803218  1.0000
  Ni  Ni6       1.0  0.005058338349921667  0.0005240383869110904  0.9999993047976058  1.0000
  Ni  Ni7       1.0  0.00788564707862361  0.007885646731445773  0.9996341880864631  1.0000
  Ni  Ni8       1.0  0.0018149580105548528  0.006625868097220594  0.9995302137434481  1.0000
  Ni  Ni9       1.0  0.002853589196528542  0.0028535890163660727  0.9996648910919196  1.0000
  Ni  Ni10      1.0  0.00662586808156502  0.0018149578495459814  0.9995302137434686  1.0000
  Ni  Ni11      1.0  0.0005283469020491001  0.005059738172021128  0.9999993512328129  1.0000
  Ni  Ni12      1.0  0.0003696179919794771  0.0003696180178086453  0.9996495395186751  1.0000
  Ni  Ni13      1.0  0.007578992571007769  0.0028964127898226523  0.9999964623123361  1.0000
