data_image0
_chemical_formula_structural       CORe18Ni6Re18Ni6
_chemical_formula_sum              "C1 O1 Re36 Ni12"
_cell_length_a       5.430758053621729
_cell_length_b       10.312291471812784
_cell_length_c       111.87367248535156
_cell_angle_alpha    82.87070389996227
_cell_angle_beta     112.89736035637429
_cell_angle_gamma    74.73315821519563

_space_group_name_H-M_alt    "P 1"
_space_group_IT_number       1

loop_
  _space_group_symop_operation_xyz
  'x, y, z'

loop_
  _atom_site_type_symbol
  _atom_site_label
  _atom_site_symmetry_multiplicity
  _atom_site_fract_x
  _atom_site_fract_y
  _atom_site_fract_z
  _atom_site_occupancy
  C   C1        1.0  0.004098317143322134  0.007082758508005549  3.522992298896416e-05  1.0000
  O   O1        1.0  0.004098317143322134  0.007082758508005549  0.00014249398299616842  1.0000
  Re  Re1       1.0  0.0017678746640361752  0.00972168185082078  0.9991260053596659  1.0000
  Re  Re2       1.0  0.0017678747377166343  0.00305501478656909  0.9993339463558666  1.0000
  Re  Re3       1.0  0.001767875022042459  0.006388348125065865  0.9989180636560684  1.0000
  Re  Re4       1.0  0.0017678747443968992  0.0013899701480359606  0.998917861454283  1.0000
  Re  Re5       1.0  0.0017678746564046058  0.004723303486532736  0.9991258026346254  1.0000
  Re  Re6       1.0  0.0017678745684123122  0.00805663682502951  0.9993337438149676  1.0000
  Re  Re7       1.0  0.006772740117203918  0.00972168185082078  0.9991260050411579  1.0000
  Re  Re8       1.0  0.006772740563202494  0.00305501478656909  0.999333946577176  1.0000
  Re  Re9       1.0  0.00677274084752832  0.006388348125065865  0.9989180638773778  1.0000
  Re  Re10      1.0  0.00843778486836731  0.0002783184067058834  0.9987446444677159  1.0000
  Re  Re11      1.0  0.008437785051437888  0.0036116518904244607  0.9989525859179093  1.0000
  Re  Re12      1.0  0.008437785335763715  0.006944985228921236  0.9991605271052838  1.0000
  Re  Re13      1.0  0.008437785226779322  0.008610029480196226  0.9989527881221928  1.0000
  Re  Re14      1.0  0.008437785267756914  0.001943362996831745  0.9991607296439157  1.0000
  Re  Re15      1.0  0.008437785417075742  0.00527669652895759  0.9987448469393524  1.0000
  Re  Re16      1.0  0.003432919415199569  0.0002783184067058834  0.9987446445198314  1.0000
  Re  Re17      1.0  0.0034329192259520288  0.0036116518904244607  0.9989525856966  1.0000
  Re  Re18      1.0  0.003432919137959736  0.006944985228921236  0.9991605268769422  1.0000
  Ni  Ni1       1.0  0.003436163846502267  0.008611110704920353  0.9989526535326971  1.0000
  Ni  Ni2       1.0  0.0034361633801547457  0.0019444444151849407  0.9991605945098376  1.0000
  Ni  Ni3       1.0  0.003436163292162453  0.005277777753681716  0.9987447120693999  1.0000
  Ni  Ni4       1.0  0.006769496869310189  0.0013888889233118346  0.9989179963242355  1.0000
  Ni  Ni5       1.0  0.0067694964089997775  0.00472222226180861  0.9991259377639383  1.0000
  Ni  Ni6       1.0  0.006769496693325602  0.008055555600305386  0.9993338789513128  1.0000
  Re  Re19      1.0  0.0017282370040153181  0.009701717144722071  0.999750907879766  1.0000
  Re  Re20      1.0  0.0015122788364891678  0.003067736797322895  0.9999330286843757  1.0000
  Re  Re21      1.0  0.001767875022042459  0.006388348125065865  0.9995418875432411  1.0000
  Re  Re22      1.0  0.0017678747443968992  0.0013899701480359606  0.9995416853414557  1.0000
  Re  Re23      1.0  0.0018248950157196387  0.004702946100681069  0.9997555124738838  1.0000
  Re  Re24      1.0  0.0015737054657762365  0.008109873975915989  0.9999369454536737  1.0000
  Re  Re25      1.0  0.006848544393365306  0.009702524190683777  0.9997508852545315  1.0000
  Re  Re26      1.0  0.006617139787663987  0.003067817734273949  0.9999330273753683  1.0000
  Re  Re27      1.0  0.00677274084752832  0.006388348125065865  0.9995418877645506  1.0000
  Re  Re28      1.0  0.00843778486836731  0.0002783184067058834  0.9993684686212813  1.0000
  Re  Re29      1.0  0.008437785051437888  0.0036116518904244607  0.999576409805082  1.0000
  Re  Re30      1.0  0.008487720253099115  0.006973861519314924  0.9997858705880386  1.0000
  Re  Re31      1.0  0.008437785226779322  0.008610029480196226  0.9995766120093654  1.0000
  Re  Re32      1.0  0.008435588024701287  0.001972458475332115  0.9997862671609017  1.0000
  Re  Re33      1.0  0.008437785417075742  0.00527669652895759  0.9993686708265251  1.0000
  Re  Re34      1.0  0.003432919415199569  0.0002783184067058834  0.999368468407004  1.0000
  Re  Re35      1.0  0.0034329192259520288  0.0036116518904244607  0.9995764095837726  1.0000
  Re  Re36      1.0  0.003377738077823541  0.006973683380570978  0.9997858988228318  1.0000
  Ni  Ni7       1.0  0.003436163846502267  0.008611110704920353  0.9995764768870846  1.0000
  Ni  Ni8       1.0  0.003461893064815894  0.0018857463436511624  0.9997841693239936  1.0000
  Ni  Ni9       1.0  0.003436163292162453  0.005277777753681716  0.9993685356901799  1.0000
  Ni  Ni10      1.0  0.006769496869310189  0.0013888889233118346  0.9995418204778008  1.0000
  Ni  Ni11      1.0  0.006731207531441048  0.004809741826709406  0.9997504710021571  1.0000
  Ni  Ni12      1.0  0.006575486371473948  0.008110495912487244  0.9999369389000977  1.0000
