data_image0
_chemical_formula_structural       COAu8Ti4
_chemical_formula_sum              "C1 O1 Au8 Ti4"
_cell_length_a       4.980717231718828
_cell_length_b       4.924522399902344
_cell_length_c       100.03820037841797
_cell_angle_alpha    90.0
_cell_angle_beta     94.00737128923458
_cell_angle_gamma    90.0

_space_group_name_H-M_alt    "P 1"
_space_group_IT_number       1

loop_
  _space_group_symop_operation_xyz
  'x, y, z'

loop_
  _atom_site_type_symbol
  _atom_site_label
  _atom_site_symmetry_multiplicity
  _atom_site_fract_x
  _atom_site_fract_y
  _atom_site_fract_z
  _atom_site_occupancy
  C   C1        1.0  0.007663373363917463  0.009999999878963604  8.57319079936812e-05  1.0000
  O   O1        1.0  0.007663373363917463  0.009999999878963604  0.00020568573231936486  1.0000
  Au  Au1       1.0  0.0017508349562078212  5.000000057449107e-11  0.9994633301471927  1.0000
  Au  Au2       1.0  0.0038936920069496646  0.004999999939481802  0.999248853392765  1.0000
  Au  Au3       1.0  0.006590891966032306  5.000000057449107e-11  0.9993224790164863  1.0000
  Au  Au4       1.0  0.004448034915290462  0.004999999939481802  0.999536955770914  1.0000
  Au  Au5       1.0  0.007419752497484832  0.009999999878963604  0.999912168278715  1.0000
  Au  Au6       1.0  0.009607977350631966  0.004999999939481802  0.9996778069265015  1.0000
  Au  Au7       1.0  0.002304930063682708  5.000000057449107e-11  0.9997483631960944  1.0000
  Au  Au8       1.0  0.0003920222819779452  0.004999999939481802  0.9999760756772089  1.0000
  Ti  Ti1       1.0  0.0070280059455172916  5.000000057449107e-11  0.9996073811991009  1.0000
  Ti  Ti2       1.0  0.00917086337114698  0.004999999939481802  0.9993929047438871  1.0000
  Ti  Ti3       1.0  0.0026090655135884307  0.009999999878963604  9.07807586864289e-06  1.0000
  Ti  Ti4       1.0  0.00489976914586417  0.004999999939481802  0.9998277365278535  1.0000
