data_image0
_chemical_formula_structural       COCu3Ir3Zn6Cu3Ir3Zn6Cu3Ir3Zn6Cu3Ir3Zn6
_chemical_formula_sum              "C1 O1 Cu12 Ir12 Zn24"
_cell_length_a       8.592580488515729
_cell_length_b       8.592580795288086
_cell_length_c       101.57115936279297
_cell_angle_alpha    90.0
_cell_angle_beta     90.0
_cell_angle_gamma    120.00000118101286

_space_group_name_H-M_alt    "P 1"
_space_group_IT_number       1

loop_
  _space_group_symop_operation_xyz
  'x, y, z'

loop_
  _atom_site_type_symbol
  _atom_site_label
  _atom_site_symmetry_multiplicity
  _atom_site_fract_x
  _atom_site_fract_y
  _atom_site_fract_z
  _atom_site_occupancy
  C   C1        1.0  0.0038888923453734817  0.0052777722889025035  0.0001419456940457676  1.0000
  O   O1        1.0  0.0038888923453734817  0.0052777722889025035  0.00026008911969269447  1.0000
  Cu  Cu1       1.0  0.0016666700074530305  0.00416666437154711  0.9996854052642372  1.0000
  Cu  Cu2       1.0  0.003333351028487481  0.002499979458850018  0.0  1.0000
  Cu  Cu3       1.0  3.2500001663089657e-09  0.0008333312030911243  0.9993400408694121  1.0000
  Ir  Ir1       1.0  0.009999996515703331  0.0008333350306603331  0.9998667886311151  1.0000
  Ir  Ir2       1.0  0.0016666700074530305  0.00416666437154711  0.9991673586719995  1.0000
  Ir  Ir3       1.0  0.0033333365105847  0.0024999978875768054  0.9995127230668246  1.0000
  Zn  Zn1       1.0  0.0033333365105847  0.0024999978875768054  0.9992536996239991  1.0000
  Zn  Zn2       1.0  3.2500001663089657e-09  0.0008333312030911243  0.9995990643122376  1.0000
  Zn  Zn3       1.0  0.001666663123964643  0.004166668733654516  0.9999571293923257  1.0000
  Zn  Zn4       1.0  3.2500001663089657e-09  0.0008333312030911243  0.9990810174265866  1.0000
  Zn  Zn5       1.0  0.0016666700074530305  0.00416666437154711  0.9994263818214117  1.0000
  Zn  Zn6       1.0  0.0033333169865085465  0.002500010669998901  0.9997636075199418  1.0000
  Cu  Cu4       1.0  0.0016666700074530305  0.009166664059393047  0.9996854052642372  1.0000
  Cu  Cu5       1.0  0.003333351028487481  0.007499979146695955  0.0  1.0000
  Cu  Cu6       1.0  3.2500001663089657e-09  0.005833331270290958  0.9993400408694121  1.0000
  Ir  Ir4       1.0  0.009999996515703331  0.005833334989473339  0.9998667886311151  1.0000
  Ir  Ir5       1.0  0.0016666700074530305  0.009166664059393047  0.9991673586719995  1.0000
  Ir  Ir6       1.0  0.0033333365105847  0.007499997900583225  0.9995127230668246  1.0000
  Zn  Zn7       1.0  0.0033333365105847  0.007499997900583225  0.9992536996239991  1.0000
  Zn  Zn8       1.0  3.2500001663089657e-09  0.005833331270290958  0.9995990643122376  1.0000
  Zn  Zn9       1.0  0.001666663123964643  0.00916666842150045  0.9999571293923257  1.0000
  Zn  Zn10      1.0  3.2500001663089657e-09  0.005833331270290958  0.9990810174265866  1.0000
  Zn  Zn11      1.0  0.0016666700074530305  0.009166664059393047  0.9994263818214117  1.0000
  Zn  Zn12      1.0  0.0033333169865085465  0.007500010683005321  0.9997636075199418  1.0000
  Cu  Cu7       1.0  0.006666670017465377  0.004166664532630316  0.9996854052642372  1.0000
  Cu  Cu8       1.0  0.008333351288808495  0.0024999796367007297  0.0  1.0000
  Cu  Cu9       1.0  0.005000003264025038  0.0008333313119871787  0.9993400408694121  1.0000
  Ir  Ir7       1.0  0.004999996755999654  0.0008333352115051183  0.9998667886311151  1.0000
  Ir  Ir8       1.0  0.006666670017465377  0.004166664532630316  0.9991673586719995  1.0000
  Ir  Ir9       1.0  0.008333336770905714  0.002499998065427517  0.9995127230668246  1.0000
  Zn  Zn13      1.0  0.008333336770905714  0.002499998065427517  0.9992536996239991  1.0000
  Zn  Zn14      1.0  0.005000003264025038  0.0008333313119871787  0.9995990643122376  1.0000
  Zn  Zn15      1.0  0.006666663008822655  0.004166668669580312  0.9999571293923257  1.0000
  Zn  Zn16      1.0  0.005000003264025038  0.0008333313119871787  0.9990810174265866  1.0000
  Zn  Zn17      1.0  0.006666670017465377  0.004166664532630316  0.9994263818214117  1.0000
  Zn  Zn18      1.0  0.008333317246829562  0.0025000108478496126  0.9997636075199418  1.0000
  Cu  Cu10      1.0  0.006666670017465377  0.009166664220476252  0.9996854052642372  1.0000
  Cu  Cu11      1.0  0.008333351288808495  0.007499979432933493  0.0  1.0000
  Cu  Cu12      1.0  0.005000003264025038  0.0058333312166067705  0.9993400408694121  1.0000
  Ir  Ir10      1.0  0.004999996755999654  0.00583333511612471  0.9998667886311151  1.0000
  Ir  Ir11      1.0  0.006666670017465377  0.009166664220476252  0.9991673586719995  1.0000
  Ir  Ir12      1.0  0.008333336770905714  0.007499997970047109  0.9995127230668246  1.0000
  Zn  Zn19      1.0  0.008333336770905714  0.007499997970047109  0.9992536996239991  1.0000
  Zn  Zn20      1.0  0.005000003264025038  0.0058333312166067705  0.9995990643122376  1.0000
  Zn  Zn21      1.0  0.006666663008822655  0.00916666852000649  0.9999571293923257  1.0000
  Zn  Zn22      1.0  0.005000003264025038  0.0058333312166067705  0.9990810174265866  1.0000
  Zn  Zn23      1.0  0.006666670017465377  0.009166664220476252  0.9994263818214117  1.0000
  Zn  Zn24      1.0  0.008333317246829562  0.007500010752469205  0.9997636075199418  1.0000
