data_image0
_chemical_formula_structural       COAl18V6Al18V6
_chemical_formula_sum              "C1 O1 Al36 V12"
_cell_length_a       8.472791030428732
_cell_length_b       9.17975134998285
_cell_length_c       107.5106430053711
_cell_angle_alpha    106.97018977436699
_cell_angle_beta     71.56505117707799
_cell_angle_gamma    79.36233931160712

_space_group_name_H-M_alt    "P 1"
_space_group_IT_number       1

loop_
  _space_group_symop_operation_xyz
  'x, y, z'

loop_
  _atom_site_type_symbol
  _atom_site_label
  _atom_site_symmetry_multiplicity
  _atom_site_fract_x
  _atom_site_fract_y
  _atom_site_fract_z
  _atom_site_occupancy
  C   C1        1.0  0.004422405052626003  0.009997206123101444  6.323728435240615e-05  1.0000
  O   O1        1.0  0.004422405052626003  0.009997206123101444  0.000174854366933668  1.0000
  Al  Al1       1.0  0.008334041588820272  0.005002795177884814  0.9991563804505267  1.0000
  Al  Al2       1.0  0.0016673751353452624  0.005002795177884814  0.9993225241065655  1.0000
  Al  Al3       1.0  0.005000708477947798  0.005002795177884814  0.9994886676124524  1.0000
  Al  Al4       1.0  0.0008340419191591464  0.0025027948125393574  0.9991563805108061  1.0000
  Al  Al5       1.0  0.004167375377626713  0.0025027948125393574  0.999322524291009  1.0000
  Al  Al6       1.0  0.007500708488499188  0.0025027948125393574  0.9994886678026709  1.0000
  Al  Al7       1.0  0.007500708488499188  0.0025027948125393574  0.9992394524658771  1.0000
  Al  Al8       1.0  0.0008340419191591464  0.0025027948125393574  0.9994055961248034  1.0000
  Al  Al9       1.0  0.004167375377626713  0.0025027948125393574  0.9990733086770117  1.0000
  Al  Al10      1.0  7.085999929504188e-07  2.79475002407181e-06  0.9992394522619541  1.0000
  Al  Al11      1.0  0.0033340419446321766  2.79475002407181e-06  0.9994055957677902  1.0000
  Al  Al12      1.0  0.006667375287234712  2.79475002407181e-06  0.9990733086000895  1.0000
  Al  Al13      1.0  0.005834041801040503  0.007502794874915411  0.9994055961293016  1.0000
  Al  Al14      1.0  0.009167374911912978  0.007502794874915411  0.9990733086901725  1.0000
  Al  Al15      1.0  0.002500708690168028  0.007502794874915411  0.9992394523404362  1.0000
  Al  Al16      1.0  0.009167374911912978  0.007502794874915411  0.9993225243041698  1.0000
  Al  Al17      1.0  0.002500708690168028  0.007502794874915411  0.9994886679544335  1.0000
  Al  Al18      1.0  0.005834041801040503  0.007502794874915411  0.9991563805153044  1.0000
  V   V1        1.0  7.085999929504188e-07  2.79475002407181e-06  0.9994886675987479  1.0000
  V   V2        1.0  0.0033340419446321766  2.79475002407181e-06  0.9991563804309964  1.0000
  V   V3        1.0  0.006667375287234712  2.79475002407181e-06  0.9993225239368833  1.0000
  V   V4        1.0  0.008334041588820272  0.005002795177884814  0.9994055957873205  1.0000
  V   V5        1.0  0.0016673751353452624  0.005002795177884814  0.9990733087697717  1.0000
  V   V6        1.0  0.005000708477947798  0.005002795177884814  0.9992394522756586  1.0000
  Al  Al19      1.0  0.008334041588820272  0.005002795177884814  0.9996548116785212  1.0000
  Al  Al20      1.0  0.0016325208342715407  0.004976891739522847  0.9998337490264969  1.0000
  Al  Al21      1.0  0.0051321347307214365  0.005072181854183008  0.9999836815947242  1.0000
  Al  Al22      1.0  0.0008340419191591464  0.0025027948125393574  0.9996548114615972  1.0000
  Al  Al23      1.0  0.0042498779417892586  0.0024616751814850878  0.9998269913298241  1.0000
  Al  Al24      1.0  0.007403289879056688  0.0024310240343702176  0.9999831144606168  1.0000
  Al  Al25      1.0  0.007515592512216807  0.0024955745615826016  0.9997365305942851  1.0000
  Al  Al26      1.0  0.0007162316719317149  0.0025096033815434405  0.9999142494140215  1.0000
  Al  Al27      1.0  0.004167375377626713  0.0025027948125393574  0.9995717396278028  1.0000
  Al  Al28      1.0  0.009999291504483419  0.009995354445400893  0.9997347911447061  1.0000
  Al  Al29      1.0  0.0033243966662094477  0.00011857235253199585  0.9999201058916313  1.0000
  Al  Al30      1.0  0.006667375287234712  2.79475002407181e-06  0.999571739828084  1.0000
  Al  Al31      1.0  0.005910749270449352  0.007546810982565273  0.9999075259237762  1.0000
  Al  Al32      1.0  0.009167374911912978  0.007502794874915411  0.9995717396409636  1.0000
  Al  Al33      1.0  0.0024996506238602716  0.007509584062788605  0.9997357076585488  1.0000
  Al  Al34      1.0  0.009188059497393163  0.007518126908849809  0.999831161827401  1.0000
  Al  Al35      1.0  0.002334364378232006  0.007635760125850496  0.9999855504367414  1.0000
  Al  Al36      1.0  0.005834041801040503  0.007502794874915411  0.9996548114660954  1.0000
  V   V7        1.0  0.0001257400979702837  0.009961293555879306  0.9999680218773016  1.0000
  V   V8        1.0  0.0033340419446321766  2.79475002407181e-06  0.9996548116589908  1.0000
  V   V9        1.0  0.0067047720865175756  0.00999172326800448  0.9998123604976128  1.0000
  V   V10       1.0  0.008372848234216423  0.004954278637979594  0.999890039701169  1.0000
  V   V11       1.0  0.0016673751353452624  0.005002795177884814  0.9995717394433593  1.0000
  V   V12       1.0  0.004947006461662048  0.005037245917740372  0.9997415651086423  1.0000
