data_image0
_chemical_formula_structural       HAl20Co8
_chemical_formula_sum              "H1 Al20 Co8"
_cell_length_a       7.72066068649292
_cell_length_b       7.720660745623691
_cell_length_c       100.5706558227539
_cell_angle_alpha    90.0
_cell_angle_beta     90.0
_cell_angle_gamma    119.9999997466499

_space_group_name_H-M_alt    "P 1"
_space_group_IT_number       1

loop_
  _space_group_symop_operation_xyz
  'x, y, z'

loop_
  _atom_site_type_symbol
  _atom_site_label
  _atom_site_symmetry_multiplicity
  _atom_site_fract_x
  _atom_site_fract_y
  _atom_site_fract_z
  _atom_site_occupancy
  H   H1        1.0  0.007360276261910517  0.00010765719896368253  8.011933339842211e-05  1.0000
  Al  Al1       1.0  0.00032166392920802614  0.00999996509989222  0.9999735156071193  1.0000
  Al  Al2       1.0  0.0003213337880847153  3.489999904531039e-08  0.999583019422721  1.0000
  Al  Al3       1.0  0.004998746980535722  0.009354861345214715  0.9993930370053187  1.0000
  Al  Al4       1.0  0.005642890466440282  0.004679194621222132  0.9997729147184603  1.0000
  Al  Al5       1.0  0.00967866609736431  0.004678115971658581  0.9997728969385291  1.0000
  Al  Al6       1.0  0.0009665074169014163  0.005322621900415792  0.9993930370053187  1.0000
  Al  Al7       1.0  0.004998747219998418  0.005322621900415792  0.9993930370053187  1.0000
  Al  Al8       1.0  0.005643568105213805  0.0006426421799858909  0.999772899901851  1.0000
  Al  Al9       1.0  0.0022236341551541377  0.0038048352120318386  0.9999152134346564  1.0000
  Al  Al10      1.0  0.008376526097347337  0.0019448429102468  0.9995376079967246  1.0000
  Al  Al11      1.0  0.004210949805113416  0.0019448429102468  0.9995376079967246  1.0000
  Al  Al12      1.0  0.006516687428067071  0.008097818967016715  0.9999152169906426  1.0000
  Al  Al13      1.0  0.0022237578092154206  0.008097646806523359  0.9999152211392932  1.0000
  Al  Al14      1.0  0.00820361815910222  0.005764720575741417  0.0  1.0000
  Al  Al15      1.0  0.00820386513719586  0.0021174956488970356  1.0075294357903434e-08  1.0000
  Al  Al16      1.0  0.008376525678052603  0.006110418846400516  0.9995376079967246  1.0000
  Al  Al17      1.0  0.0045571287739890635  0.002118025223489058  0.999999985776055  1.0000
  Al  Al18      1.0  0.006431717731044323  0.00805522679525263  0.9996284311450496  1.0000
  Al  Al19      1.0  0.0022661418372788623  0.0038896509983873387  0.9996284311450496  1.0000
  Al  Al20      1.0  0.002266141680065035  0.00805522679525263  0.9996284311450496  1.0000
  Co  Co1       1.0  0.0036544471563314802  0.006666679429200759  0.9997829111884565  1.0000
  Co  Co2       1.0  0.006988000319571889  0.0033333681294390885  0.9993930370053187  1.0000
  Co  Co3       1.0  0.00159568229628294  0.002548731916395495  0.9993930370053187  1.0000
  Co  Co4       1.0  0.009079904770039879  0.001241496536367107  0.9997688757107516  1.0000
  Co  Co5       1.0  0.0028028790149389653  0.0012408262804657884  0.9997688757107516  1.0000
  Co  Co6       1.0  0.0077726368728112194  0.008725686614825402  0.9993930370053187  1.0000
  Co  Co7       1.0  0.0015956823578709104  0.008725686614825402  0.9993930370053187  1.0000
  Co  Co8       1.0  0.009080292651203846  0.007518063769833513  0.9997688804520666  1.0000
