data_image0
_chemical_formula_structural       COSb8Rh4Sb8Rh4
_chemical_formula_sum              "C1 O1 Sb16 Rh8"
_cell_length_a       6.6856608390808105
_cell_length_b       6.82104460092763
_cell_length_c       110.44993591308594
_cell_angle_alpha    116.36749174590294
_cell_angle_beta     90.0
_cell_angle_gamma    90.0

_space_group_name_H-M_alt    "P 1"
_space_group_IT_number       1

loop_
  _space_group_symop_operation_xyz
  'x, y, z'

loop_
  _atom_site_type_symbol
  _atom_site_label
  _atom_site_symmetry_multiplicity
  _atom_site_fract_x
  _atom_site_fract_y
  _atom_site_fract_z
  _atom_site_occupancy
  C   C1        1.0  0.005070920020024468  0.0034346669332164536  0.00013489283078763008  1.0000
  O   O1        1.0  0.005070920020024468  0.0034346669332164536  0.00024353956036235794  1.0000
  Sb  Sb1       1.0  0.006385441955646474  0.0018544391596942394  0.9991243298060323  1.0000
  Sb  Sb2       1.0  0.0013854417216199563  0.003347373828712162  0.9993139112651994  1.0000
  Sb  Sb3       1.0  0.003614558233803564  0.008347374011581116  0.999313911421318  1.0000
  Sb  Sb4       1.0  0.008614557910624087  0.006854439190172399  0.9991243296881445  1.0000
  Sb  Sb5       1.0  0.00363228936436579  0.003832077133344335  0.9990059242933184  1.0000
  Sb  Sb6       1.0  0.008632289319789311  0.0013697357026712718  0.9994323167737335  1.0000
  Sb  Sb7       1.0  0.00636771054648125  0.006369735885540226  0.999432316929852  1.0000
  Sb  Sb8       1.0  0.0013677104517562312  0.008832077316213289  0.9990059244494369  1.0000
  Rh  Rh1       1.0  5.261499771631073e-06  0.002973858809953221  0.9990796503469123  1.0000
  Rh  Rh2       1.0  0.00500526165163203  0.002227954330843975  0.9993585909983256  1.0000
  Rh  Rh3       1.0  0.009994738771844525  0.007227954513712929  0.9993585906147912  1.0000
  Rh  Rh4       1.0  0.00499473825921501  0.007973858688040585  0.9990796502248448  1.0000
  Sb  Sb9       1.0  0.006385441955646474  0.0018544391596942394  0.9997347108639443  1.0000
  Sb  Sb10      1.0  0.0013905529722098814  0.0034223942929671822  0.9999345645753643  1.0000
  Sb  Sb11      1.0  0.003609526385067892  0.008422373445906486  0.9999345652339823  1.0000
  Sb  Sb12      1.0  0.008614557910624087  0.006854439190172399  0.9997347110158831  1.0000
  Sb  Sb13      1.0  0.00363228936436579  0.003832077133344335  0.9996163053512304  1.0000
  Sb  Sb14      1.0  0.008567181470919696  0.0011679228971338243  3.2033668320504416e-05  1.0000
  Sb  Sb15      1.0  0.006432922592871885  0.00616796620659764  3.203446765779868e-05  1.0000
  Sb  Sb16      1.0  0.0013677104517562312  0.008832077316213289  0.9996163055073489  1.0000
  Rh  Rh5       1.0  5.261499771631073e-06  0.002973858809953221  0.9996900316746508  1.0000
  Rh  Rh6       1.0  0.005070920020024468  0.002175955239141876  0.9999598660279804  1.0000
  Rh  Rh7       1.0  0.009929162312733317  0.007175945973781567  0.9999598572905051  1.0000
  Rh  Rh8       1.0  0.00499473825921501  0.007973858688040585  0.9996900312827568  1.0000
