data_image0
_chemical_formula_structural       COCu12Si4
_chemical_formula_sum              "C1 O1 Cu12 Si4"
_cell_length_a       4.535572934972812
_cell_length_b       5.164196491241455
_cell_length_c       103.97557830810547
_cell_angle_alpha    90.0
_cell_angle_beta     91.4199480894895
_cell_angle_gamma    90.0

_space_group_name_H-M_alt    "P 1"
_space_group_IT_number       1

loop_
  _space_group_symop_operation_xyz
  'x, y, z'

loop_
  _atom_site_type_symbol
  _atom_site_label
  _atom_site_symmetry_multiplicity
  _atom_site_fract_x
  _atom_site_fract_y
  _atom_site_fract_z
  _atom_site_occupancy
  C   C1        1.0  0.009223507320537203  0.002484619262694129  0.00016992928026956922  1.0000
  O   O1        1.0  0.009223507320537203  0.002484619262694129  0.0002853406577229498  1.0000
  Cu  Cu1       1.0  0.00906977331153613  0.0075000073579619035  0.9995879596526777  1.0000
  Cu  Cu2       1.0  0.0058009675379238216  0.0024959193248241824  0.9997949264817427  1.0000
  Cu  Cu3       1.0  0.0021947732704560427  0.0025000073218934627  0.999383731551432  1.0000
  Cu  Cu4       1.0  0.002472479381740092  0.007546115809819019  1.4292374793050031e-06  1.0000
  Cu  Cu5       1.0  0.00906977331153613  0.0025000073218934627  0.9995879596526777  1.0000
  Cu  Cu6       1.0  0.005800905506992685  0.007504054958377597  0.9997949298542275  1.0000
  Cu  Cu7       1.0  0.0021947732704560427  0.0075000073579619035  0.999383731551432  1.0000
  Cu  Cu8       1.0  0.0024724849275518162  0.0024538898529261723  1.4160585814888277e-06  1.0000
  Cu  Cu9       1.0  0.0040697733936963035  0.0050000074300987855  0.9995879595549546  1.0000
  Cu  Cu10      1.0  0.0007764921556916888  0.009999955707954818  0.9997922749870972  1.0000
  Cu  Cu11      1.0  0.007194772982895435  7.350000109937594e-09  0.9993837313623049  1.0000
  Cu  Cu12      1.0  0.007521855920764466  0.0049999749685021525  8.130761068599662e-06  1.0000
  Si  Si1       1.0  0.007194772982895435  0.0050000074300987855  0.9993837313623049  1.0000
  Si  Si2       1.0  0.0040697733936963035  7.350000109937594e-09  0.9995879595549546  1.0000
  Si  Si3       1.0  0.007392201415468618  0.009999992497764334  3.393603593811719e-07  1.0000
  Si  Si4       1.0  0.0008109700563796257  0.004999987231771991  0.9998036506903875  1.0000
