data_image0
_chemical_formula_structural       COAl6Cu4Al6Cu4
_chemical_formula_sum              "C1 O1 Al12 Cu8"
_cell_length_a       7.240439414978027
_cell_length_b       6.580564461718236
_cell_length_c       36.55784225463867
_cell_angle_alpha    71.4807998383341
_cell_angle_beta     90.0
_cell_angle_gamma    56.623507299109704

_space_group_name_H-M_alt    "P 1"
_space_group_IT_number       1

loop_
  _space_group_symop_operation_xyz
  'x, y, z'

loop_
  _atom_site_type_symbol
  _atom_site_label
  _atom_site_symmetry_multiplicity
  _atom_site_fract_x
  _atom_site_fract_y
  _atom_site_fract_z
  _atom_site_occupancy
  C   C1        1.0  0.005925759664487168  0.008325023441974241  0.9999436039552217  1.0000
  O   O1        1.0  0.005925759664487168  0.008325023441974241  0.00027185074924172847  1.0000
  Al  Al1       1.0  4.674820525905625e-05  0.0003787176380865748  0.9987668372083085  1.0000
  Al  Al2       1.0  0.005277630212763842  0.009621282345420892  0.999431317448478  1.0000
  Al  Al3       1.0  0.00022055916745671985  0.003720869157168844  0.9991987884489199  1.0000
  Al  Al4       1.0  0.0036685963755953444  0.004348625931814958  0.9994187417979427  1.0000
  Al  Al5       1.0  0.005284230904668451  0.006860617660368061  0.9989580406939119  1.0000
  Al  Al6       1.0  0.00980906170275779  0.00700109080005014  0.9995997240802431  1.0000
  Cu  Cu1       1.0  0.00750907343901221  0.008787400785608721  0.9988578178377768  1.0000
  Cu  Cu2       1.0  0.002310370971390749  0.008762066787906288  0.9994281263999509  1.0000
  Cu  Cu3       1.0  0.007600294476972248  0.001913464304809184  0.9992492077631958  1.0000
  Cu  Cu4       1.0  0.002584422924195443  0.0019700344282593024  0.9986758562726226  1.0000
  Al  Al7       1.0  4.674820525905625e-05  0.0003787176380865748  0.9976233697125223  1.0000
  Al  Al8       1.0  0.005046747852175449  0.0003787176380865748  0.9981951034604154  1.0000
  Al  Al9       1.0  0.009953250871646566  0.0038990438622934836  0.9979938345642558  1.0000
  Al  Al10      1.0  0.004953251530221453  0.0038990438622934836  0.9985655683121489  1.0000
  Al  Al11      1.0  0.0051402444841051964  0.006858391534824913  0.9978246386995923  1.0000
  Al  Al12      1.0  0.00014024437091263734  0.006858391534824913  0.9983963724474854  1.0000
  Cu  Cu5       1.0  0.00750907343901221  0.008787400785608721  0.9977143507495957  1.0000
  Cu  Cu6       1.0  0.0025090730685638344  0.008787400785608721  0.9982860844974888  1.0000
  Cu  Cu7       1.0  0.007584423037388002  0.0019700344282593024  0.9981041225247295  1.0000
  Cu  Cu8       1.0  0.002584422924195443  0.0019700344282593024  0.9975323887768364  1.0000
