data_image0
_chemical_formula_structural       Pt8V4H
_chemical_formula_sum              "Pt8 V4 H1"
_cell_length_a       4.720427182246784
_cell_length_b       4.841635345997055
_cell_length_c       101.31491088867188
_cell_angle_alpha    91.04333865565694
_cell_angle_beta     92.14063720821028
_cell_angle_gamma    60.82473775996055

_space_group_name_H-M_alt    "P 1"
_space_group_IT_number       1

loop_
  _space_group_symop_operation_xyz
  'x, y, z'

loop_
  _atom_site_type_symbol
  _atom_site_label
  _atom_site_symmetry_multiplicity
  _atom_site_fract_x
  _atom_site_fract_y
  _atom_site_fract_z
  _atom_site_occupancy
  Pt  Pt1       1.0  0.005313231400401917  0.006811415925044772  0.9997947377868825  1.0000
  Pt  Pt2       1.0  0.009153943634164219  0.006808740960302314  1.3937322713585618e-05  1.0000
  Pt  Pt3       1.0  0.005962677990343363  0.0031912719320495823  1.3937461161083256e-05  1.0000
  Pt  Pt4       1.0  0.002124646147743515  0.003188593222092117  0.9997947379315143  1.0000
  Pt  Pt5       1.0  0.008291281173283104  0.00679370546419432  0.9993523195207208  1.0000
  Pt  Pt6       1.0  0.0018627095980463977  0.00679370546419432  0.9995730944621689  1.0000
  Pt  Pt7       1.0  0.008656413776659683  0.0032062966331260837  0.9995730943225043  1.0000
  Pt  Pt8       1.0  0.00508498543087  0.0032062966331260837  0.9993523193650151  1.0000
  V   V1        1.0  0.0025381687565177473  5.249999699714134e-09  4.417212334363854e-06  1.0000
  V   V2        1.0  0.008720223776149925  0.00999999813179863  0.9997971978438319  1.0000
  V   V3        1.0  0.005259561755143554  1.150000007258172e-09  0.9995730944616693  1.0000
  V   V4        1.0  0.0016881332119198435  1.150000007258172e-09  0.9993523195038364  1.0000
  H   H1        1.0  0.0008460563242041363  0.003404373123832339  0.00015723020333527598  1.0000
