data_image0
_chemical_formula_structural       COAs18Si18
_chemical_formula_sum              "C1 O1 As18 Si18"
_cell_length_a       9.118568897115125
_cell_length_b       12.124309369946772
_cell_length_c       106.20067596435547
_cell_angle_alpha    86.86540439270738
_cell_angle_beta     87.48451617773536
_cell_angle_gamma    71.89463294173515

_space_group_name_H-M_alt    "P 1"
_space_group_IT_number       1

loop_
  _space_group_symop_operation_xyz
  'x, y, z'

loop_
  _atom_site_type_symbol
  _atom_site_label
  _atom_site_symmetry_multiplicity
  _atom_site_fract_x
  _atom_site_fract_y
  _atom_site_fract_z
  _atom_site_occupancy
  C   C1        1.0  0.0021317838055777295  0.003916346883174318  3.747668585391246e-05  1.0000
  O   O1        1.0  0.0021317838055777295  0.003916346883174318  0.00015047054591863258  1.0000
  As  As1       1.0  0.002576558322507861  0.004417931759588804  0.9992654384196632  1.0000
  As  As2       1.0  0.00969552407222348  0.007958492420909654  0.9998668668711713  1.0000
  As  As3       1.0  0.0009098915905574657  0.006084598266629481  0.9995494967588405  1.0000
  As  As4       1.0  0.003688780651792893  0.00888365942351914  0.9998559545732986  1.0000
  As  As5       1.0  0.005404690977906253  0.007285579566801914  0.9995684975985709  1.0000
  As  As6       1.0  0.007071357576934711  0.005618913383327435  0.9992844386966291  1.0000
  As  As7       1.0  0.006010106433024993  0.0003119978964469719  0.9996010114767647  1.0000
  As  As8       1.0  0.0076767728028925755  0.008645330916999648  0.9993169529847523  1.0000
  As  As9       1.0  0.0036496297655067384  0.0020845461025814807  0.9998982752416199  1.0000
  As  As10      1.0  0.00030447639528829545  0.0030581804093910694  0.999516983033867  1.0000
  As  As11      1.0  0.001971143025005448  0.0013915139023503932  0.9992329244144522  1.0000
  As  As12      1.0  0.009289140406764068  0.004682769397488058  0.9998550887124418  1.0000
  As  As13      1.0  0.005256023172483904  0.0036821765258512103  0.999582591372173  1.0000
  As  As14      1.0  0.006922689628423266  0.002015509695244337  0.9992985324748104  1.0000
  As  As15      1.0  0.003483343945010395  0.005316981469482976  0.9998731793541951  1.0000
  As  As16      1.0  0.0010585592630578777  0.009688001631146382  0.9995354029837193  1.0000
  As  As17      1.0  0.0027252261279302093  0.008021334800539508  0.999251344646061  1.0000
  As  As18      1.0  0.009519630016876975  0.0013310253859114495  0.9998325494393887  1.0000
  Si  Si1       1.0  0.005046540899638413  0.0020583285043451268  0.9994688698508407  1.0000
  Si  Si2       1.0  0.006713207631588808  0.00039166199730445025  0.999184810950418  1.0000
  Si  Si3       1.0  0.0033739068678083272  0.0037360687409085666  0.9997488417027393  1.0000
  Si  Si4       1.0  0.001268041588744664  0.001311849882384464  0.9996491246605671  1.0000
  Si  Si5       1.0  0.0029347084007757007  0.009645182822045592  0.9993650661673933  1.0000
  Si  Si6       1.0  0.0008935389564770882  0.0026457592138088982  0.9998749701474754  1.0000
  Si  Si7       1.0  0.002582373309230128  0.002638133405680319  0.9993793148521589  1.0000
  Si  Si8       1.0  0.0007865729614376332  0.005914706599284274  0.9999355907969179  1.0000
  Si  Si9       1.0  0.0009157067152852494  0.004304800074504094  0.9996633737510516  1.0000
  Si  Si10      1.0  0.003707966907096702  0.0006654034893642704  0.9997402444229496  1.0000
  Si  Si11      1.0  0.005398875515790048  0.009065378082493497  0.9994546211668567  1.0000
  Si  Si12      1.0  0.007065542380662379  0.007398711251886624  0.999170562267953  1.0000
  Si  Si13      1.0  0.0034104196252482425  0.00513124508904169  0.9994506572741357  1.0000
  Si  Si14      1.0  0.0050770863571986385  0.003464578582001014  0.999166598373713  1.0000
  Si  Si15      1.0  0.0018040372641463086  0.00677381109147234  0.99973031954392  1.0000
  Si  Si16      1.0  0.0029041628102935394  0.008238933067955902  0.999667337643002  1.0000
  Si  Si17      1.0  0.0045708296751658705  0.006572266237349028  0.9993832787440983  1.0000
  Si  Si18      1.0  0.0010017875617017102  0.009401526474527917  0.9999375340087033  1.0000
