data_image0
_chemical_formula_structural       COAl20Mo4Al20Mo4
_chemical_formula_sum              "C1 O1 Al40 Mo8"
_cell_length_a       8.553972244262695
_cell_length_b       8.911979675292969
_cell_length_c       104.57046508789062
_cell_angle_alpha    90.0
_cell_angle_beta     90.0
_cell_angle_gamma    90.0

_space_group_name_H-M_alt    "P 1"
_space_group_IT_number       1

loop_
  _space_group_symop_operation_xyz
  'x, y, z'

loop_
  _atom_site_type_symbol
  _atom_site_label
  _atom_site_symmetry_multiplicity
  _atom_site_fract_x
  _atom_site_fract_y
  _atom_site_fract_z
  _atom_site_occupancy
  C   C1        1.0  0.00917101944341317  0.009740752611213746  0.00016332067427584184  1.0000
  O   O1        1.0  0.00917101944341317  0.009740752611213746  0.0002780754925121806  1.0000
  Al  Al1       1.0  0.00917101944341317  0.009740752611213746  0.9999976858202019  1.0000
  Al  Al2       1.0  0.004091668063763937  0.009989123699235348  0.9997639006510529  1.0000
  Al  Al3       1.0  0.0024523843294044587  0.00028151039428923603  0.9999977228698784  1.0000
  Al  Al4       1.0  0.007530758437770709  3.2889999648696634e-05  0.9997638824112121  1.0000
  Al  Al5       1.0  0.005810696089604872  0.005010875498186816  0.999679883954485  1.0000
  Al  Al6       1.0  0.0008105762497540273  0.005011146368206874  0.9999188606383141  1.0000
  Al  Al7       1.0  0.0057672841662402205  0.002551076421408154  0.9998385226896324  1.0000
  Al  Al8       1.0  0.0008106959045156135  0.002510875631949789  0.9996035827105644  1.0000
  Al  Al9       1.0  0.007530354289931757  0.005053791257985114  0.9999231897505227  1.0000
  Al  Al10      1.0  0.0025028971477196586  0.005010875498186816  0.9996835017129034  1.0000
  Al  Al11      1.0  0.00747736301757402  0.007510875364423844  0.9996035827105644  1.0000
  Al  Al12      1.0  0.0024316562922613214  0.007500660889408198  0.999842875171637  1.0000
  Al  Al13      1.0  0.005812334020663382  1.1166599758549558e-05  0.0  1.0000
  Al  Al14      1.0  0.0008110605303541505  1.1301599614376064e-05  0.9997628404603079  1.0000
  Al  Al15      1.0  0.005854022654158709  0.007470877727480522  0.9998385671492442  1.0000
  Al  Al16      1.0  0.0008106959045156135  0.007510875364423844  0.9996035827105644  1.0000
  Al  Al17      1.0  0.004144029161635723  0.002510875631949789  0.9996035827105644  1.0000
  Al  Al18      1.0  0.009189423848234403  0.0025209891577218477  0.9998428512318459  1.0000
  Al  Al19      1.0  0.00409108492372476  0.00496743304668285  0.9999233276893186  1.0000
  Al  Al20      1.0  0.009118495031490084  0.005010875498186816  0.9996835017129034  1.0000
  Mo  Mo1       1.0  0.004144029161635723  0.007510875364423844  0.9996035827105644  1.0000
  Mo  Mo2       1.0  0.009151452242546678  0.00745452604006597  0.9998308921662438  1.0000
  Mo  Mo3       1.0  0.00747736301757402  0.002510875631949789  0.9996035827105644  1.0000
  Mo  Mo4       1.0  0.0024698737400342717  0.002567910073534322  0.9998309115460746  1.0000
  Al  Al21      1.0  0.009118495031490084  1.087579918616208e-05  0.9995236637082253  1.0000
  Al  Al22      1.0  0.004118494683086775  1.087579918616208e-05  0.9992875244596264  1.0000
  Al  Al23      1.0  0.0025028971477196586  1.087579918616208e-05  0.9995236637082253  1.0000
  Al  Al24      1.0  0.007502897496122968  1.087579918616208e-05  0.9992875244596264  1.0000
  Al  Al25      1.0  0.005810696089604872  0.005010875498186816  0.9992076054572874  1.0000
  Al  Al26      1.0  0.0008106959045156135  0.005010875498186816  0.9994437447058863  1.0000
  Al  Al27      1.0  0.005810696089604872  0.002510875631949789  0.9993674434619656  1.0000
  Al  Al28      1.0  0.0008106959045156135  0.002510875631949789  0.9991313042133667  1.0000
  Al  Al29      1.0  0.007502897496122968  0.005010875498186816  0.9994473624643047  1.0000
  Al  Al30      1.0  0.0025028971477196586  0.005010875498186816  0.9992112232157058  1.0000
  Al  Al31      1.0  0.00747736301757402  0.007510875364423844  0.9991313042133667  1.0000
  Al  Al32      1.0  0.002477362669170711  0.007510875364423844  0.9993674434619656  1.0000
  Al  Al33      1.0  0.005810696089604872  1.087579918616208e-05  0.9995272814666437  1.0000
  Al  Al34      1.0  0.0008106959045156135  1.087579918616208e-05  0.9992911422180449  1.0000
  Al  Al35      1.0  0.005810696089604872  0.007510875364423844  0.9993674434619656  1.0000
  Al  Al36      1.0  0.0008106959045156135  0.007510875364423844  0.9991313042133667  1.0000
  Al  Al37      1.0  0.004144029161635723  0.002510875631949789  0.9991313042133667  1.0000
  Al  Al38      1.0  0.009144029510039032  0.002510875631949789  0.9993674434619656  1.0000
  Al  Al39      1.0  0.004118494683086775  0.005010875498186816  0.9994473624643047  1.0000
  Al  Al40      1.0  0.009118495031490084  0.005010875498186816  0.9992112232157058  1.0000
  Mo  Mo5       1.0  0.004144029161635723  0.007510875364423844  0.9991313042133667  1.0000
  Mo  Mo6       1.0  0.009144029510039032  0.007510875364423844  0.9993674434619656  1.0000
  Mo  Mo7       1.0  0.00747736301757402  0.002510875631949789  0.9991313042133667  1.0000
  Mo  Mo8       1.0  0.002477362669170711  0.002510875631949789  0.9993674434619656  1.0000
