data_image0
_chemical_formula_structural       COCa2Cu2In4
_chemical_formula_sum              "C1 O1 Ca2 Cu2 In4"
_cell_length_a       5.9370731158383
_cell_length_b       4.520562171936035
_cell_length_c       100.73248291015625
_cell_angle_alpha    90.0
_cell_angle_beta     90.0
_cell_angle_gamma    112.37743881336576

_space_group_name_H-M_alt    "P 1"
_space_group_IT_number       1

loop_
  _space_group_symop_operation_xyz
  'x, y, z'

loop_
  _atom_site_type_symbol
  _atom_site_label
  _atom_site_symmetry_multiplicity
  _atom_site_fract_x
  _atom_site_fract_y
  _atom_site_fract_z
  _atom_site_occupancy
  C   C1        1.0  0.0036448992718359115  0.009314022000512517  9.617572676276857e-05  1.0000
  O   O1        1.0  0.0036448992718359115  0.009314022000512517  0.00021530278853442285  1.0000
  Ca  Ca1       1.0  0.0013904786229096964  0.0006859784122985431  0.999619660083273  1.0000
  Ca  Ca2       1.0  0.008609521855475637  0.009295514506129697  0.0  1.0000
  Cu  Cu1       1.0  0.005725759432168201  0.007853618873132406  0.999619660083273  1.0000
  Cu  Cu2       1.0  0.004424467187581292  0.0022032390983758718  0.9999806415418132  1.0000
  In  In1       1.0  0.007164492800481251  0.003572985557417694  0.9994677279022833  1.0000
  In  In2       1.0  0.002881586278967379  0.006431532708570383  0.9993902298687561  1.0000
  In  In3       1.0  0.0028653313560905312  0.006424804529496896  0.999867817990711  1.0000
  In  In4       1.0  0.007308185504439677  0.003644972659939698  0.9997668801637072  1.0000
