data_image0
_chemical_formula_structural       COIn8Pd24
_chemical_formula_sum              "C1 O1 In8 Pd24"
_cell_length_a       7.056013471995636
_cell_length_b       5.732840754712503
_cell_length_c       103.5404281616211
_cell_angle_alpha    89.12546651500742
_cell_angle_beta     85.18705109719811
_cell_angle_gamma    91.38576588899015

_space_group_name_H-M_alt    "P 1"
_space_group_IT_number       1

loop_
  _space_group_symop_operation_xyz
  'x, y, z'

loop_
  _atom_site_type_symbol
  _atom_site_label
  _atom_site_symmetry_multiplicity
  _atom_site_fract_x
  _atom_site_fract_y
  _atom_site_fract_z
  _atom_site_occupancy
  C   C1        1.0  0.004200052063903498  0.003690535754451243  4.036877700945094e-05  1.0000
  O   O1        1.0  0.004200052063903498  0.003690535754451243  0.00015626519473836922  1.0000
  In  In1       1.0  0.0016383315850933267  0.00875693386313726  0.9993111317689242  1.0000
  In  In2       1.0  0.0021383315872133307  0.0037569338697026338  0.9988252282855234  1.0000
  In  In3       1.0  0.008638331614773382  0.00875693429299607  0.9989871960509185  1.0000
  In  In4       1.0  0.005138331334932868  0.0037569339527786833  0.9991491639180187  1.0000
  In  In5       1.0  0.007557294991892767  0.00874170254338095  0.9999494016530075  1.0000
  In  In6       1.0  0.008138331347652891  0.0037569340441622498  0.9994730992611589  1.0000
  In  In7       1.0  0.00463833159781335  0.008756933954520825  0.9996350671120644  1.0000
  In  In8       1.0  0.0011665126621641854  0.003727848952724094  0.9998031852654699  1.0000
  Pd  Pd1       1.0  0.005388331733493599  0.0012569339685226456  0.9989062120301186  1.0000
  Pd  Pd2       1.0  0.0018883315861533286  0.00625693419136568  0.9990681798830329  1.0000
  Pd  Pd3       1.0  0.008388331746213623  0.0012569339786697785  0.9992301476611603  1.0000
  Pd  Pd4       1.0  0.00888833148333314  0.006256933967179265  0.9987442444541702  1.0000
  Pd  Pd5       1.0  0.005388331733493599  0.006256934085503109  0.9989062123113762  1.0000
  Pd  Pd6       1.0  0.0018883315861533286  0.0012569339931487824  0.9990681798896767  1.0000
  Pd  Pd7       1.0  0.008388331746213623  0.006256934176886676  0.9992301476545165  1.0000
  Pd  Pd8       1.0  0.00888833148333314  0.0012569339314352339  0.9987442444606767  1.0000
  Pd  Pd9       1.0  0.0021383315872133307  0.008756934311628831  0.9988252282786738  1.0000
  Pd  Pd10      1.0  0.008638331614773382  0.0037569338510698718  0.9989871960577682  1.0000
  Pd  Pd11      1.0  0.005138331334932868  0.008756933744813414  0.9991491639117182  1.0000
  Pd  Pd12      1.0  0.0016383315850933267  0.0037569340711025283  0.9993111317752247  1.0000
  Pd  Pd13      1.0  0.0013883315840333248  0.0012569339508393769  0.9995540833795837  1.0000
  Pd  Pd14      1.0  0.007935221725101098  0.00626052883039815  0.9997128225190532  1.0000
  Pd  Pd15      1.0  0.004412623263810095  0.0012430660188485578  0.99987258563972  1.0000
  Pd  Pd16      1.0  0.0048883314663731095  0.006256934278595488  0.9993921155147669  1.0000
  Pd  Pd17      1.0  0.0013883315840333248  0.006256933742874107  0.9995540833732833  1.0000
  Pd  Pd18      1.0  0.007944839122741713  0.0012515796546668063  0.999713396816811  1.0000
  Pd  Pd19      1.0  0.004402978836119901  0.006242940075131167  0.9998723524759812  1.0000
  Pd  Pd20      1.0  0.0048883314663731095  0.0012569339179057234  0.999392115521548  1.0000
  Pd  Pd21      1.0  0.008138331347652891  0.00875693383619698  0.9994730992548584  1.0000
  Pd  Pd22      1.0  0.00463833159781335  0.0037569338375403613  0.9996350671186396  1.0000
  Pd  Pd23      1.0  0.0011116684265666948  0.008732684559718326  0.9998017740956596  1.0000
  Pd  Pd24      1.0  0.007671442891267409  0.0037549509160204404  0.9999469405639111  1.0000
