data_image0
_chemical_formula_structural       HCu6Se12Cu6Se12
_chemical_formula_sum              "H1 Cu12 Se24"
_cell_length_a       7.387217166801233
_cell_length_b       9.256256579126532
_cell_length_c       108.40946197509766
_cell_angle_alpha    86.40261972933249
_cell_angle_beta     71.63526576961597
_cell_angle_gamma    64.1641474804287

_space_group_name_H-M_alt    "P 1"
_space_group_IT_number       1

loop_
  _space_group_symop_operation_xyz
  'x, y, z'

loop_
  _atom_site_type_symbol
  _atom_site_label
  _atom_site_symmetry_multiplicity
  _atom_site_fract_x
  _atom_site_fract_y
  _atom_site_fract_z
  _atom_site_occupancy
  H   H1        1.0  0.006712693781760552  0.001593803391814547  1.8785155157909128e-05  1.0000
  Cu  Cu1       1.0  0.0024306676818964894  0.00960079336608895  0.9997848831236351  1.0000
  Cu  Cu2       1.0  0.0023795522455870226  0.0028823060066912732  0.9994051364540762  1.0000
  Cu  Cu3       1.0  0.0023795522455870226  0.006215639495950432  0.9996019698102381  1.0000
  Cu  Cu4       1.0  0.007379552281074201  0.007882305817429379  0.9994051367237354  1.0000
  Cu  Cu5       1.0  0.007379552281074201  0.001215639242167505  0.9996019696293984  1.0000
  Cu  Cu6       1.0  0.007236977218026261  0.004747295501955537  0.9997840525944484  1.0000
  Se  Se1       1.0  0.006232633875996329  0.008891688646091422  0.999648903797217  1.0000
  Se  Se2       1.0  0.006384754398631055  0.0023634114486056046  0.9998502635747363  1.0000
  Se  Se3       1.0  0.006232633875996329  0.005558355560088707  0.9994520709887053  1.0000
  Se  Se4       1.0  0.008802261068895773  0.00045987229182309537  0.9999415737056099  1.0000
  Se  Se5       1.0  0.008526470686152074  0.003539590306021064  0.9995550359099182  1.0000
  Se  Se6       1.0  0.00843424660644155  0.006897258218395623  0.9997560209226731  1.0000
  Se  Se7       1.0  0.003526470354938407  0.009793743199671918  0.9994069202881314  1.0000
  Se  Se8       1.0  0.003526470354938407  0.0031270762211536014  0.9996037537457652  1.0000
  Se  Se9       1.0  0.003383347606434282  0.0066395970428422555  0.99980851025222  1.0000
  Se  Se10      1.0  0.0012326340623040161  0.0059708693061319785  0.9994033530698149  1.0000
  Se  Se11      1.0  0.0012326340623040161  0.009304202795391138  0.9996001858761664  1.0000
  Se  Se12      1.0  0.0011977385584888511  0.002639846782642412  0.9997910555893685  1.0000
  Cu  Cu7       1.0  0.0023795522455870226  0.009548972581953146  0.9992083035484133  1.0000
  Cu  Cu8       1.0  0.0023795522455870226  0.0028823060066912732  0.9988146368339292  1.0000
  Cu  Cu9       1.0  0.0023795522455870226  0.006215639495950432  0.9990114701900911  1.0000
  Cu  Cu10      1.0  0.007379552281074201  0.007882305817429379  0.9988146368286832  1.0000
  Cu  Cu11      1.0  0.007379552281074201  0.001215639242167505  0.9990114700092514  1.0000
  Cu  Cu12      1.0  0.007379552281074201  0.004548972731426663  0.9992083033654132  1.0000
  Se  Se13      1.0  0.006232633875996329  0.008891688646091422  0.99905840417707  1.0000
  Se  Se14      1.0  0.006232633875996329  0.002225021667573105  0.9992552376347038  1.0000
  Se  Se15      1.0  0.006232633875996329  0.005558355560088707  0.9988615708187478  1.0000
  Se  Se16      1.0  0.008526470686152074  0.0002062568167619051  0.9993582025537564  1.0000
  Se  Se17      1.0  0.008526470686152074  0.003539590306021064  0.9989645357399609  1.0000
  Se  Se18      1.0  0.008526470686152074  0.006872923795280222  0.9991613690961227  1.0000
  Se  Se19      1.0  0.003526470354938407  0.009793743199671918  0.9988164206679844  1.0000
  Se  Se20      1.0  0.003526470354938407  0.0031270762211536014  0.9990132541256181  1.0000
  Se  Se21      1.0  0.003526470354938407  0.006460410113669203  0.9992100869298092  1.0000
  Se  Se22      1.0  0.0012326340623040161  0.0059708693061319785  0.9988128531747626  1.0000
  Se  Se23      1.0  0.0012326340623040161  0.009304202795391138  0.9990096862560194  1.0000
  Se  Se24      1.0  0.0012326340623040161  0.0026375358168728197  0.999206519713653  1.0000
