data_image0
_chemical_formula_structural       COV4Ir12V4Ir12
_chemical_formula_sum              "C1 O1 V8 Ir24"
_cell_length_a       5.478970050811768
_cell_length_b       11.79652439868775
_cell_length_c       104.9459457397461
_cell_angle_alpha    68.265930825003
_cell_angle_beta     90.0
_cell_angle_gamma    62.32495973849876

_space_group_name_H-M_alt    "P 1"
_space_group_IT_number       1

loop_
  _space_group_symop_operation_xyz
  'x, y, z'

loop_
  _atom_site_type_symbol
  _atom_site_label
  _atom_site_symmetry_multiplicity
  _atom_site_fract_x
  _atom_site_fract_y
  _atom_site_fract_z
  _atom_site_occupancy
  C   C1        1.0  0.006594724035697563  0.003438153588498571  0.9998173836096887  1.0000
  O   O1        1.0  0.006594724035697563  0.003438153588498571  0.9999317284205731  1.0000
  V   V1        1.0  0.006650016183677703  0.0033840186733613154  0.9990498360419022  1.0000
  V   V2        1.0  0.006650015411189735  0.008384019364258248  0.9992579543941892  1.0000
  V   V3        1.0  0.0033166831750677957  0.0017173521035249008  0.9993273277805537  1.0000
  V   V4        1.0  0.0033166826514497965  0.00671735220558922  0.9991192090544874  1.0000
  Ir  Ir1       1.0  0.0033334066710280215  0.004213171148586254  0.9992234424466442  1.0000
  Ir  Ir2       1.0  0.003333405218614765  0.009213171839483187  0.9990153236960685  1.0000
  Ir  Ir3       1.0  0.00830832113412758  0.0017257137229114386  0.9993269797386458  1.0000
  Ir  Ir4       1.0  0.008308321146749762  0.006725713628698221  0.9991188610207493  1.0000
  Ir  Ir5       1.0  0.008308320745877505  0.004213171148586254  0.9992234424466442  1.0000
  Ir  Ir6       1.0  0.008308320653314827  0.009213171839483187  0.9990153236960685  1.0000
  Ir  Ir7       1.0  0.0066332930276801205  0.0008881996282999624  0.9991537213758117  1.0000
  Ir  Ir8       1.0  0.006633293523950056  0.005888199730364282  0.9989456026497454  1.0000
  Ir  Ir9       1.0  0.0016583780283403815  0.0033756572502523156  0.9990501840756403  1.0000
  Ir  Ir10      1.0  0.0016583777009999197  0.008375657156039098  0.9992583024606064  1.0000
  Ir  Ir11      1.0  0.0016583781029240261  0.0008881996282999624  0.9991537213758117  1.0000
  Ir  Ir12      1.0  0.0016583780892499933  0.005888199730364282  0.9989456026497454  1.0000
  V   V5        1.0  0.006634420937451358  0.003399227042097883  0.9994663056799513  1.0000
  V   V6        1.0  0.006617459958138857  0.008416676806102565  0.9996496663962317  1.0000
  V   V7        1.0  0.003197222387924283  0.0018369498956142666  0.999718431164726  1.0000
  V   V8        1.0  0.003362355236743709  0.006671530036731598  0.9995333743501787  1.0000
  Ir  Ir13      1.0  0.00339328767113601  0.004201430218831931  0.9996357211580807  1.0000
  Ir  Ir14      1.0  0.003333405218614765  0.009213171839483187  0.9994315607989311  1.0000
  Ir  Ir15      1.0  0.008184243983383443  0.0018490721926244767  0.999728263382502  1.0000
  Ir  Ir16      1.0  0.008356793574841809  0.00667683188558184  0.9995446030857001  1.0000
  Ir  Ir17      1.0  0.008269831288540527  0.004201206069883797  0.9996356714206097  1.0000
  Ir  Ir18      1.0  0.008308320653314827  0.009213171839483187  0.9994315607989311  1.0000
  Ir  Ir19      1.0  0.0067229228795484  0.000787209584693186  0.9995813404541277  1.0000
  Ir  Ir20      1.0  0.006633293523950056  0.005888199730364282  0.9993618397526081  1.0000
  Ir  Ir21      1.0  0.0016625941882104092  0.003371917378047647  0.9994654170805123  1.0000
  Ir  Ir22      1.0  0.0016432052078537405  0.008390587595782182  0.9996642850065675  1.0000
  Ir  Ir23      1.0  0.0017718895727862549  0.0007868289044086811  0.9995813733381366  1.0000
  Ir  Ir24      1.0  0.0016583780892499933  0.005888199730364282  0.9993618397526081  1.0000
