data_image0
_chemical_formula_structural       CONa6Sb2
_chemical_formula_sum              "C1 O1 Na6 Sb2"
_cell_length_a       5.4419950069790755
_cell_length_b       5.441995143890381
_cell_length_c       108.71217346191406
_cell_angle_alpha    90.0
_cell_angle_beta     90.0
_cell_angle_gamma    120.00000083222963

_space_group_name_H-M_alt    "P 1"
_space_group_IT_number       1

loop_
  _space_group_symop_operation_xyz
  'x, y, z'

loop_
  _atom_site_type_symbol
  _atom_site_label
  _atom_site_symmetry_multiplicity
  _atom_site_fract_x
  _atom_site_fract_y
  _atom_site_fract_z
  _atom_site_occupancy
  C   C1        1.0  0.003909269497798391  0.0005539131373452246  0.00013249774705416937  1.0000
  O   O1        1.0  0.003909269497798391  0.0005539131373452246  0.0002428806446811249  1.0000
  Na  Na1       1.0  0.00830638233937157  0.009419137403356703  0.9993390508332723  1.0000
  Na  Na2       1.0  0.005012529572107757  0.0027722103497264273  0.9998364115215309  1.0000
  Na  Na3       1.0  0.001683762083050038  0.006107825906106036  0.0  1.0000
  Na  Na4       1.0  0.0016397155541382359  0.006085804010740037  0.9994880786558288  1.0000
  Na  Na5       1.0  0.00830638233937157  0.009419137403356703  0.9996371070266645  1.0000
  Na  Na6       1.0  0.004973048847949347  0.002752470736368262  0.999191984754394  1.0000
  Sb  Sb1       1.0  0.004973048847949347  0.002752470736368262  0.9994880786558288  1.0000
  Sb  Sb2       1.0  0.008360284327295096  0.00944608668595609  0.9999195197123374  1.0000
