data_image0
_chemical_formula_structural       HMn8Al8Pt8Mn8Al8Pt8
_chemical_formula_sum              "H1 Mn16 Al16 Pt16"
_cell_length_a       7.38063383102417
_cell_length_b       6.8366673356387855
_cell_length_c       111.02000427246094
_cell_angle_alpha    77.11324516248786
_cell_angle_beta     90.0
_cell_angle_gamma    90.0

_space_group_name_H-M_alt    "P 1"
_space_group_IT_number       1

loop_
  _space_group_symop_operation_xyz
  'x, y, z'

loop_
  _atom_site_type_symbol
  _atom_site_label
  _atom_site_symmetry_multiplicity
  _atom_site_fract_x
  _atom_site_fract_y
  _atom_site_fract_z
  _atom_site_occupancy
  H   H1        1.0  0.009527055915532386  0.008175964610327633  0.999965928222167  1.0000
  Mn  Mn1       1.0  0.00047294429645779824  0.005518445574499543  0.9990100038612085  1.0000
  Mn  Mn2       1.0  0.00047294429645779824  0.0005184452572797138  0.9993179062333885  1.0000
  Mn  Mn3       1.0  0.005472944528637524  0.003018445328549367  0.9991639550484981  1.0000
  Mn  Mn4       1.0  0.005472944528637524  0.008018445261472046  0.9988560521447141  1.0000
  Mn  Mn5       1.0  0.00047294429645779824  0.003018445328549367  0.9988560521330552  1.0000
  Mn  Mn6       1.0  0.00047294429645779824  0.008018445261472046  0.999163955060157  1.0000
  Mn  Mn7       1.0  0.005472944528637524  0.0005184452572797138  0.9990100038548276  1.0000
  Mn  Mn8       1.0  0.005472944528637524  0.005518445574499543  0.9993179062397695  1.0000
  Al  Al1       1.0  0.0038062777004545262  0.0017684452055742794  0.9987790768058604  1.0000
  Al  Al2       1.0  0.0038062777004545262  0.006768445417985795  0.9990869791922418  1.0000
  Al  Al3       1.0  0.008806278185003518  0.0092684451049583  0.9989330280126292  1.0000
  Al  Al4       1.0  0.008806278185003518  0.004268445172035619  0.9992409303795312  1.0000
  Al  Al5       1.0  0.0021396111246407955  0.006768445417985795  0.9987790768136808  1.0000
  Al  Al6       1.0  0.0021396111246407955  0.0017684452055742794  0.9990869791844214  1.0000
  Al  Al7       1.0  0.007139611356820521  0.004268445172035619  0.9989330280009704  1.0000
  Al  Al8       1.0  0.007139611356820521  0.0092684451049583  0.9992409303911901  1.0000
  Pt  Pt1       1.0  0.0038062777004545262  0.004268445172035619  0.9989330280009704  1.0000
  Pt  Pt2       1.0  0.0038062777004545262  0.0092684451049583  0.9992409303911901  1.0000
  Pt  Pt3       1.0  0.008806278185003518  0.0017684452055742794  0.9990869791844214  1.0000
  Pt  Pt4       1.0  0.008806278185003518  0.006768445417985795  0.9987790768136808  1.0000
  Pt  Pt5       1.0  0.0021396111246407955  0.004268445172035619  0.9992409303795312  1.0000
  Pt  Pt6       1.0  0.0021396111246407955  0.0092684451049583  0.9989330280126292  1.0000
  Pt  Pt7       1.0  0.007139611356820521  0.0017684452055742794  0.9987790768058604  1.0000
  Pt  Pt8       1.0  0.007139611356820521  0.006768445417985795  0.9990869791922418  1.0000
  Mn  Mn9       1.0  0.00047294429645779824  0.005518445574499543  0.9996258086183304  1.0000
  Mn  Mn10      1.0  0.0007431794146903367  0.009481554783246167  0.9998921942959687  1.0000
  Mn  Mn11      1.0  0.0054347413737519555  0.002782288162398379  0.9997844833664408  1.0000
  Mn  Mn12      1.0  0.005472944528637524  0.008018445261472046  0.9994718574387178  1.0000
  Mn  Mn13      1.0  0.00047294429645779824  0.003018445328549367  0.9994718574270589  1.0000
  Mn  Mn14      1.0  0.0005115741131352284  0.007779738318672438  0.9997842515663066  1.0000
  Mn  Mn15      1.0  0.005472944528637524  0.0005184452572797138  0.9996258086119494  1.0000
  Mn  Mn16      1.0  0.005202122020936263  0.004488435306482181  0.9998924353395495  1.0000
  Al  Al9       1.0  0.0038062777004545262  0.0017684452055742794  0.9993948815629823  1.0000
  Al  Al10      1.0  0.0037226700336522507  0.006559420748521366  0.9996953283004755  1.0000
  Al  Al11      1.0  0.008806278185003518  0.0092684451049583  0.999548832769751  1.0000
  Al  Al12      1.0  0.008619205932740336  0.0040123461979644556  0.9998763824776367  1.0000
  Al  Al13      1.0  0.0021396111246407955  0.006768445417985795  0.9993948815708026  1.0000
  Al  Al14      1.0  0.0022227135481707274  0.0015581664697038038  0.9996953079342324  1.0000
  Al  Al15      1.0  0.007139611356820521  0.004268445172035619  0.9995488332949741  1.0000
  Al  Al16      1.0  0.0073264140787066495  0.009005479649170232  0.9998763189500816  1.0000
  Pt  Pt9       1.0  0.0038062777004545262  0.004268445172035619  0.9995488332949741  1.0000
  Pt  Pt10      1.0  0.004049938713435852  0.008717724651605764  0.9998481895851458  1.0000
  Pt  Pt11      1.0  0.008769950133771055  0.001801841466303431  0.9997142939890646  1.0000
  Pt  Pt12      1.0  0.008806278185003518  0.006768445417985795  0.9993948815708026  1.0000
  Pt  Pt13      1.0  0.0018954518085419656  0.003718166870021253  0.9998482006812154  1.0000
  Pt  Pt14      1.0  0.0021396111246407955  0.0092684451049583  0.999548832769751  1.0000
  Pt  Pt15      1.0  0.007139611356820521  0.0017684452055742794  0.9993948815629823  1.0000
  Pt  Pt16      1.0  0.007175651202350179  0.006801226663531861  0.9997139421956502  1.0000
