data_image0
_chemical_formula_structural       COIn6Pd4In6Pd4
_chemical_formula_sum              "C1 O1 In12 Pd8"
_cell_length_a       4.664609605721102
_cell_length_b       12.190405432951795
_cell_length_c       107.31687927246094
_cell_angle_alpha    112.49767633081679
_cell_angle_beta     119.99999876959585
_cell_angle_gamma    78.96999844492585

_space_group_name_H-M_alt    "P 1"
_space_group_IT_number       1

loop_
  _space_group_symop_operation_xyz
  'x, y, z'

loop_
  _atom_site_type_symbol
  _atom_site_label
  _atom_site_symmetry_multiplicity
  _atom_site_fract_x
  _atom_site_fract_y
  _atom_site_fract_z
  _atom_site_occupancy
  C   C1        1.0  0.0016261650329554996  0.004757402516988082  0.000452712707099399  1.0000
  O   O1        1.0  0.0016261650329554996  0.004757402516988082  0.0005645313175551584  1.0000
  In  In1       1.0  0.0015746067056209877  0.00017003160623372637  0.9998146610598578  1.0000
  In  In2       1.0  0.0015746067056209877  0.005170031647579331  0.9995973320528254  1.0000
  In  In3       1.0  0.008241273470653177  0.0033837477375685343  0.99966457572978  1.0000
  In  In4       1.0  0.008241273470653177  0.008383748068333368  0.9998819045308232  1.0000
  In  In5       1.0  0.004907940088137082  0.0019563153922077096  0.9997474172696371  1.0000
  In  In6       1.0  0.004907940088137082  0.006956315226825292  0.9995300882536191  1.0000
  Pd  Pd1       1.0  0.008241273470653177  0.0008982510313247529  0.9995565417330937  1.0000
  Pd  Pd2       1.0  0.008241273470653177  0.005898251444780796  0.9997738705377313  1.0000
  Pd  Pd3       1.0  0.004907940088137082  0.0044418121811427  0.9998554512699175  1.0000
  Pd  Pd4       1.0  0.004907940088137082  0.009441812511907535  0.999638122275465  1.0000
  In  In7       1.0  0.0017440649882911584  0.009829968352420669  0.00024906801471831627  1.0000
  In  In8       1.0  0.0015746067056209877  0.005170031647579331  3.198984832128896e-05  1.0000
  In  In9       1.0  0.008346464331441606  0.0033441383179152817  0.00010610962767847567  1.0000
  In  In10      1.0  0.008425393441927297  0.008241046195939796  0.00032599748970549937  1.0000
  In  In11      1.0  0.005063144745427862  0.0018563093061347614  0.00019072260025993206  1.0000
  In  In12      1.0  0.004907940088137082  0.006956315226825292  0.9999647460491149  1.0000
  Pd  Pd5       1.0  0.008241273470653177  0.0008982510313247529  0.9999911995285895  1.0000
  Pd  Pd6       1.0  0.008104009301502879  0.005826081204089841  0.00019323513630639048  1.0000
  Pd  Pd7       1.0  0.004608240012486126  0.004238189710832152  0.00025472321501655235  1.0000
  Pd  Pd8       1.0  0.004910538782299352  0.009433487161032197  7.237276303142143e-05  1.0000
