data_image0
_chemical_formula_structural       HV2Pt6V2Pt6V2Pt6V2Pt6
_chemical_formula_sum              "H1 V8 Pt24"
_cell_length_a       7.7995171546936035
_cell_length_b       7.953238487243652
_cell_length_c       101.19806671142578
_cell_angle_alpha    90.0
_cell_angle_beta     90.0
_cell_angle_gamma    90.0

_space_group_name_H-M_alt    "P 1"
_space_group_IT_number       1

loop_
  _space_group_symop_operation_xyz
  'x, y, z'

loop_
  _atom_site_type_symbol
  _atom_site_label
  _atom_site_symmetry_multiplicity
  _atom_site_fract_x
  _atom_site_fract_y
  _atom_site_fract_z
  _atom_site_occupancy
  H   H1        1.0  0.0025000260977516777  0.0023270002799153436  0.00012041192845451372  1.0000
  V   V1        1.0  1.7500000721630188e-09  1.8299999817356345e-08  0.9996129596812157  1.0000
  V   V2        1.0  0.0025000017385764296  0.005000018267567592  0.999420280157737  1.0000
  Pt  Pt1       1.0  0.0025000017385764296  0.002500018267567592  0.9996129596812157  1.0000
  Pt  Pt2       1.0  1.7500000721630188e-09  0.002500018267567592  0.999420280157737  1.0000
  Pt  Pt3       1.0  0.0025000017385764296  1.8299999817356345e-08  0.999420280157737  1.0000
  Pt  Pt4       1.0  1.7500000721630188e-09  0.007500018267567593  0.999420280157737  1.0000
  Pt  Pt5       1.0  0.0025000017385764296  0.007500018267567593  0.9996129596812157  1.0000
  Pt  Pt6       1.0  1.7500000721630188e-09  0.005000018267567592  0.9996129596812157  1.0000
  V   V3        1.0  5.849999945152862e-09  3.360000001615612e-08  0.9999788334679811  1.0000
  V   V4        1.0  0.002500000305683768  0.005000029977546818  0.9998310441084305  1.0000
  Pt  Pt7       1.0  0.0025000260977516777  0.0023270002799153436  0.9999986653487616  1.0000
  Pt  Pt8       1.0  1.5050000871129333e-08  0.002507140979531331  0.9998053305739578  1.0000
  Pt  Pt9       1.0  0.0025000036490999784  0.00999998126403324  0.9998035641930823  1.0000
  Pt  Pt10      1.0  0.009999996446426199  0.007492906094585156  0.9998053317519378  1.0000
  Pt  Pt11      1.0  0.0024999792899247303  0.007673022437444355  0.9999986629928018  1.0000
  Pt  Pt12      1.0  0.009999998356949749  0.005000017799168423  0.0  1.0000
  V   V5        1.0  0.005000002044260197  1.8299999817356345e-08  0.9996129596812157  1.0000
  V   V6        1.0  0.007500001872313078  0.005000018267567592  0.999420280157737  1.0000
  Pt  Pt13      1.0  0.007500001872313078  0.002500018267567592  0.9996129596812157  1.0000
  Pt  Pt14      1.0  0.005000002044260197  0.002500018267567592  0.999420280157737  1.0000
  Pt  Pt15      1.0  0.007500001872313078  1.8299999817356345e-08  0.999420280157737  1.0000
  Pt  Pt16      1.0  0.005000002044260197  0.007500018267567593  0.999420280157737  1.0000
  Pt  Pt17      1.0  0.007500001872313078  0.007500018267567593  0.9996129596812157  1.0000
  Pt  Pt18      1.0  0.005000002044260197  0.005000018267567592  0.9996129596812157  1.0000
  V   V7        1.0  0.0050000058653072955  3.360000001615612e-08  0.9999788334679811  1.0000
  V   V8        1.0  0.0075000004394204164  0.005000029977546818  0.9998310441084305  1.0000
  Pt  Pt19      1.0  0.007500026231488326  0.0023270002799153436  0.9999986653487616  1.0000
  Pt  Pt20      1.0  0.005000015417925039  0.002507140979531331  0.9998053305739578  1.0000
  Pt  Pt21      1.0  0.007500003782836627  0.00999998126403324  0.9998035641930823  1.0000
  Pt  Pt22      1.0  0.004999996312689551  0.007492906094585156  0.9998053317519378  1.0000
  Pt  Pt23      1.0  0.007499979423661379  0.007673022437444355  0.9999986629928018  1.0000
  Pt  Pt24      1.0  0.004999998223213099  0.005000017799168423  0.0  1.0000
