data_image0
_chemical_formula_structural       COIr6W6Ir6W6
_chemical_formula_sum              "C1 O1 Ir12 W12"
_cell_length_a       7.154405221378154
_cell_length_b       4.866885185241699
_cell_length_c       101.72462463378906
_cell_angle_alpha    90.0
_cell_angle_beta     97.18063202963603
_cell_angle_gamma    90.0

_space_group_name_H-M_alt    "P 1"
_space_group_IT_number       1

loop_
  _space_group_symop_operation_xyz
  'x, y, z'

loop_
  _atom_site_type_symbol
  _atom_site_label
  _atom_site_symmetry_multiplicity
  _atom_site_fract_x
  _atom_site_fract_y
  _atom_site_fract_z
  _atom_site_occupancy
  C   C1        1.0  0.007805006692439978  0.0024837661612983094  0.00013562565561004263  1.0000
  O   O1        1.0  0.007805006692439978  0.0024837661612983094  0.0002535914319586448  1.0000
  Ir  Ir1       1.0  0.004166666579197512  0.006755789245348941  0.999920696422529  1.0000
  Ir  Ir2       1.0  0.0008333332895987559  0.006755789245348941  0.9997474365158203  1.0000
  Ir  Ir3       1.0  0.007500000000000001  0.006755789245348941  0.9995741764216104  1.0000
  Ir  Ir4       1.0  0.0025  0.003244211566013475  0.9995741766618463  1.0000
  Ir  Ir5       1.0  0.009166666316790048  0.003244211566013475  0.9999206964729568  1.0000
  Ir  Ir6       1.0  0.005833333158395024  0.003244211566013475  0.9997474365674016  1.0000
  W   W1        1.0  0.0025  0.0017233209479422039  0.9998340661767808  1.0000
  W   W2        1.0  0.009166666316790048  0.0017233209479422039  0.9996608063720812  1.0000
  W   W3        1.0  0.005833333158395024  0.0017233209479422039  7.326082336037513e-06  1.0000
  W   W4        1.0  0.0008333332895987559  0.008276679672061152  7.32603075477607e-06  1.0000
  W   W5        1.0  0.007500000000000001  0.008276679672061152  0.9998340662295155  1.0000
  W   W6        1.0  0.004166666579197512  0.008276679672061152  0.9996608063216533  1.0000
  Ir  Ir7       1.0  0.004166666579197512  0.006755789245348941  0.9994009168067189  1.0000
  Ir  Ir8       1.0  0.0008333332895987559  0.006755789245348941  0.9992276569000103  1.0000
  Ir  Ir9       1.0  0.007500000000000001  0.006755789245348941  0.999054397098771  1.0000
  Ir  Ir10      1.0  0.0025  0.003244211566013475  0.9990543970460363  1.0000
  Ir  Ir11      1.0  0.009166666316790048  0.003244211566013475  0.9994009165641762  1.0000
  Ir  Ir12      1.0  0.005833333158395024  0.003244211566013475  0.9992276569515914  1.0000
  W   W7        1.0  0.0025  0.0017233209479422039  0.9993142868539413  1.0000
  W   W8        1.0  0.009166666316790048  0.0017233209479422039  0.9991410270492417  1.0000
  W   W9        1.0  0.005833333158395024  0.0017233209479422039  0.9994875467594965  1.0000
  W   W10       1.0  0.0008333332895987559  0.008276679672061152  0.9994875467079153  1.0000
  W   W11       1.0  0.007500000000000001  0.008276679672061152  0.999314286906676  1.0000
  W   W12       1.0  0.004166666579197512  0.008276679672061152  0.9991410269988138  1.0000
