data_image0
_chemical_formula_structural       HCr4Si8Cr4Si8Cr4Si8Cr4Si8
_chemical_formula_sum              "H1 Cr16 Si32"
_cell_length_a       8.753695487976074
_cell_length_b       8.739765654990393
_cell_length_c       100.3076171875
_cell_angle_alpha    90.10541781261418
_cell_angle_beta     90.0
_cell_angle_gamma    90.0

_space_group_name_H-M_alt    "P 1"
_space_group_IT_number       1

loop_
  _space_group_symop_operation_xyz
  'x, y, z'

loop_
  _atom_site_type_symbol
  _atom_site_label
  _atom_site_symmetry_multiplicity
  _atom_site_fract_x
  _atom_site_fract_y
  _atom_site_fract_z
  _atom_site_occupancy
  H   H1        1.0  0.005416633699353355  0.0006598060277774565  7.149637518566447e-05  1.0000
  Cr  Cr1       1.0  0.0012499933824218332  0.004404920321594912  0.9998895421212844  1.0000
  Cr  Cr2       1.0  0.00374996323094832  0.0006198805081376709  0.9997045380467727  1.0000
  Cr  Cr3       1.0  0.00374996323094832  0.0031198806061744208  0.9993268545034047  1.0000
  Cr  Cr4       1.0  0.001249963167113161  0.0018698805038752035  0.9995156961265256  1.0000
  Si  Si1       1.0  0.001249963167113161  0.004397747441482938  0.9996429940584748  1.0000
  Si  Si2       1.0  0.00374996323094832  0.0006477476141128672  0.9994541521957281  1.0000
  Si  Si3       1.0  0.0037500368541652255  0.00312626855291783  0.9998442924067036  1.0000
  Si  Si4       1.0  0.0012499915737589902  0.0019684792600067457  3.155642819063585e-07  1.0000
  Si  Si5       1.0  0.0012499701889806694  0.0018754818122630956  0.9997581173868212  1.0000
  Si  Si6       1.0  0.00374996323094832  0.0030920134469183823  0.9995772400573316  1.0000
  Si  Si7       1.0  0.0037499155673628094  0.00059507992775943  0.9999561487766879  1.0000
  Si  Si8       1.0  0.001249963167113161  0.0043420135492176  0.9993883984342109  1.0000
  Cr  Cr5       1.0  0.0012499933824218332  0.009404920304545043  0.9998895420638096  1.0000
  Cr  Cr6       1.0  0.00374996323094832  0.005619880384526117  0.9997045379892808  1.0000
  Cr  Cr7       1.0  0.00374996323094832  0.008119880162877813  0.9993268544458617  1.0000
  Cr  Cr8       1.0  0.001249963167113161  0.0068698804868253345  0.9995156960690508  1.0000
  Si  Si9       1.0  0.001249963167113161  0.009397747424433068  0.999642994001  1.0000
  Si  Si10      1.0  0.00374996323094832  0.005647747543782155  0.9994541521382447  1.0000
  Si  Si11      1.0  0.0037500368541652255  0.00812626874899133  0.9998442923492629  1.0000
  Si  Si12      1.0  0.0012499915737589902  0.006968479456080245  3.1550684126524654e-07  1.0000
  Si  Si13      1.0  0.0012499701889806694  0.006875481795213226  0.9997581173293464  1.0000
  Si  Si14      1.0  0.00374996323094832  0.008092013856115252  0.9995772399999252  1.0000
  Si  Si15      1.0  0.0037499155673628094  0.005595080070552087  0.9999561493134572  1.0000
  Si  Si16      1.0  0.001249963167113161  0.009342013105920992  0.9993883983766677  1.0000
  Cr  Cr9       1.0  0.006249993190916356  0.004404920321594912  0.9998895421212844  1.0000
  Cr  Cr10      1.0  0.008749962720267047  0.0006198805081376709  0.9997045380467727  1.0000
  Cr  Cr11      1.0  0.008749962720267047  0.0031198806061744208  0.9993268545034047  1.0000
  Cr  Cr12      1.0  0.006249962975607684  0.0018698805038752035  0.9995156961265256  1.0000
  Si  Si17      1.0  0.006249962975607684  0.004397747441482938  0.9996429940584748  1.0000
  Si  Si18      1.0  0.008749962720267047  0.0006477476141128672  0.9994541521957281  1.0000
  Si  Si19      1.0  0.008750036769051681  0.00312626855291783  0.9998442924067036  1.0000
  Si  Si20      1.0  0.006249991488645445  0.0019684792600067457  3.155642819063585e-07  1.0000
  Si  Si21      1.0  0.006249970210259056  0.0018754818122630956  0.9997581173868212  1.0000
  Si  Si22      1.0  0.008749962720267047  0.0030920134469183823  0.9995772400573316  1.0000
  Si  Si23      1.0  0.008749915907816992  0.00059507992775943  0.9999561487766879  1.0000
  Si  Si24      1.0  0.006249962975607684  0.0043420135492176  0.9993883984342109  1.0000
  Cr  Cr13      1.0  0.006249993190916356  0.009404920304545043  0.9998895420638096  1.0000
  Cr  Cr14      1.0  0.008749962720267047  0.005619880384526117  0.9997045379892808  1.0000
  Cr  Cr15      1.0  0.008749962720267047  0.008119880162877813  0.9993268544458617  1.0000
  Cr  Cr16      1.0  0.006249962975607684  0.0068698804868253345  0.9995156960690508  1.0000
  Si  Si25      1.0  0.006249962975607684  0.009397747424433068  0.999642994001  1.0000
  Si  Si26      1.0  0.008749962720267047  0.005647747543782155  0.9994541521382447  1.0000
  Si  Si27      1.0  0.008750036769051681  0.00812626874899133  0.9998442923492629  1.0000
  Si  Si28      1.0  0.006249991488645445  0.006968479456080245  3.1550684126524654e-07  1.0000
  Si  Si29      1.0  0.006249970210259056  0.006875481795213226  0.9997581173293464  1.0000
  Si  Si30      1.0  0.008749962720267047  0.008092013856115252  0.9995772399999252  1.0000
  Si  Si31      1.0  0.008749915907816992  0.005595080070552087  0.9999561493134572  1.0000
  Si  Si32      1.0  0.006249962975607684  0.009342013105920992  0.9993883983766677  1.0000
