data_image0
_chemical_formula_structural       HAl3Pt9Al3Pt9Al3Pt9Al3Pt9
_chemical_formula_sum              "H1 Al12 Pt36"
_cell_length_a       8.805042933157152
_cell_length_b       7.875470161437988
_cell_length_c       103.41278839111328
_cell_angle_alpha    90.0
_cell_angle_beta     108.43495029473458
_cell_angle_gamma    90.0

_space_group_name_H-M_alt    "P 1"
_space_group_IT_number       1

loop_
  _space_group_symop_operation_xyz
  'x, y, z'

loop_
  _atom_site_type_symbol
  _atom_site_label
  _atom_site_symmetry_multiplicity
  _atom_site_fract_x
  _atom_site_fract_y
  _atom_site_fract_z
  _atom_site_occupancy
  H   H1        1.0  0.008989037813498905  0.0024999999716185306  0.00024203070746277926  1.0000
  Al  Al1       1.0  0.007500000428132922  0.0012499999858092653  0.999889456008119  1.0000
  Al  Al2       1.0  0.004166666755861025  0.0012499999858092653  6.895624808581721e-05  1.0000
  Al  Al3       1.0  0.0008333333623215  0.0012499999858092653  0.9997099553563435  1.0000
  Pt  Pt1       1.0  0.0058333333690110765  0.0037500000756839195  0.9999792061220985  1.0000
  Pt  Pt2       1.0  0.002500000142710974  0.0037500000756839195  0.00015870695044910386  1.0000
  Pt  Pt3       1.0  0.009166667487254768  0.0037500000756839195  0.9997997053177635  1.0000
  Pt  Pt4       1.0  0.007500000428132922  0.0012499999858092653  0.00015870657772598624  1.0000
  Pt  Pt5       1.0  0.004166666755861025  0.0012499999858092653  0.9997997056784789  1.0000
  Pt  Pt6       1.0  0.0008333333623215  0.0012499999858092653  0.9999792059259506  1.0000
  Pt  Pt7       1.0  0.009166667487254768  0.0037500000756839195  6.895646374648911e-05  1.0000
  Pt  Pt8       1.0  0.0058333333690110765  0.0037500000756839195  0.9997099549761156  1.0000
  Pt  Pt9       1.0  0.002500000142710974  0.0037500000756839195  0.9998894558044662  1.0000
  Al  Al4       1.0  0.007500000428132922  0.0012499999858092653  0.999350954004341  1.0000
  Al  Al5       1.0  0.004166666755861025  0.0012499999858092653  0.9995304545324959  1.0000
  Al  Al6       1.0  0.0008333333623215  0.0012499999858092653  0.9991714533525656  1.0000
  Pt  Pt10      1.0  0.0058333333690110765  0.0037500000756839195  0.9994407041183205  1.0000
  Pt  Pt11      1.0  0.002500000142710974  0.0037500000756839195  0.9996202046584832  1.0000
  Pt  Pt12      1.0  0.009166667487254768  0.0037500000756839195  0.9992612036021736  1.0000
  Pt  Pt13      1.0  0.007500000428132922  0.0012499999858092653  0.999620204862136  1.0000
  Pt  Pt14      1.0  0.004166666755861025  0.0012499999858092653  0.9992612036747008  1.0000
  Pt  Pt15      1.0  0.0008333333623215  0.0012499999858092653  0.9994407042103606  1.0000
  Pt  Pt16      1.0  0.009166667487254768  0.0037500000756839195  0.9995304544599686  1.0000
  Pt  Pt17      1.0  0.0058333333690110765  0.0037500000756839195  0.9991714532605256  1.0000
  Pt  Pt18      1.0  0.002500000142710974  0.0037500000756839195  0.9993509538006882  1.0000
  Al  Al7       1.0  0.007500000428132922  0.006249999810790202  0.999889456008119  1.0000
  Al  Al8       1.0  0.004166666755861025  0.006249999810790202  6.895624808581721e-05  1.0000
  Al  Al9       1.0  0.0008333333623215  0.006249999810790202  0.9997099553563435  1.0000
  Pt  Pt19      1.0  0.0058333333690110765  0.008749999545896486  0.9999792061220985  1.0000
  Pt  Pt20      1.0  0.002500000142710974  0.008749999545896486  0.00015870695044910386  1.0000
  Pt  Pt21      1.0  0.009166667487254768  0.008749999545896486  0.9997997053177635  1.0000
  Pt  Pt22      1.0  0.007500000428132922  0.006249999810790202  0.00015870657772598624  1.0000
  Pt  Pt23      1.0  0.004166666755861025  0.006249999810790202  0.9997997056784789  1.0000
  Pt  Pt24      1.0  0.0008333333623215  0.006249999810790202  0.9999792059259506  1.0000
  Pt  Pt25      1.0  0.009166667487254768  0.008749999545896486  6.895646374648911e-05  1.0000
  Pt  Pt26      1.0  0.0058333333690110765  0.008749999545896486  0.9997099549761156  1.0000
  Pt  Pt27      1.0  0.002500000142710974  0.008749999545896486  0.9998894558044662  1.0000
  Al  Al10      1.0  0.007500000428132922  0.006249999810790202  0.999350954004341  1.0000
  Al  Al11      1.0  0.004166666755861025  0.006249999810790202  0.9995304545324959  1.0000
  Al  Al12      1.0  0.0008333333623215  0.006249999810790202  0.9991714533525656  1.0000
  Pt  Pt28      1.0  0.0058333333690110765  0.008749999545896486  0.9994407041183205  1.0000
  Pt  Pt29      1.0  0.002500000142710974  0.008749999545896486  0.9996202046584832  1.0000
  Pt  Pt30      1.0  0.009166667487254768  0.008749999545896486  0.9992612036021736  1.0000
  Pt  Pt31      1.0  0.007500000428132922  0.006249999810790202  0.999620204862136  1.0000
  Pt  Pt32      1.0  0.004166666755861025  0.006249999810790202  0.9992612036747008  1.0000
  Pt  Pt33      1.0  0.0008333333623215  0.006249999810790202  0.9994407042103606  1.0000
  Pt  Pt34      1.0  0.009166667487254768  0.008749999545896486  0.9995304544599686  1.0000
  Pt  Pt35      1.0  0.0058333333690110765  0.008749999545896486  0.9991714532605256  1.0000
  Pt  Pt36      1.0  0.002500000142710974  0.008749999545896486  0.9993509538006882  1.0000
