data_image0
_chemical_formula_structural       COGa6Ni10Ga6Ni10Ga6Ni10
_chemical_formula_sum              "C1 O1 Ga18 Ni30"
_cell_length_a       8.499349525827968
_cell_length_b       6.8402299880981445
_cell_length_c       104.00040435791016
_cell_angle_alpha    90.0
_cell_angle_beta     116.39031563920219
_cell_angle_gamma    90.0

_space_group_name_H-M_alt    "P 1"
_space_group_IT_number       1

loop_
  _space_group_symop_operation_xyz
  'x, y, z'

loop_
  _atom_site_type_symbol
  _atom_site_label
  _atom_site_symmetry_multiplicity
  _atom_site_fract_x
  _atom_site_fract_y
  _atom_site_fract_z
  _atom_site_occupancy
  C   C1        1.0  0.008354183969400675  0.0011245973728341062  0.0002710278424990051  1.0000
  O   O1        1.0  0.008354183969400675  0.0011245973728341062  0.0003864116699767642  1.0000
  Ga  Ga1       1.0  0.004529027813433162  0.006124597220341969  0.000164517296034362  1.0000
  Ga  Ga2       1.0  0.00015699076086358305  0.006124597220341969  5.702701891794197e-06  1.0000
  Ga  Ga3       1.0  0.0023430093559553148  0.0011245973728341062  0.9999034844656922  1.0000
  Ga  Ga4       1.0  0.009529028322298726  0.0011245973728341062  0.9999828916412  1.0000
  Ga  Ga5       1.0  0.00515699091804922  0.0011245973728341062  0.0001873281058232434  1.0000
  Ga  Ga6       1.0  0.007343009375527067  0.006124597220341969  8.510986462479578e-05  1.0000
  Ni  Ni1       1.0  0.0023430093559553148  0.0033737921185023187  8.511000146249576e-05  1.0000
  Ni  Ni2       1.0  0.0023430093559553148  0.008875402866796393  8.511000146249576e-05  1.0000
  Ni  Ni3       1.0  0.004843009610388097  0.003624597296588038  0.9999942971740453  1.0000
  Ni  Ni4       1.0  0.0023430093559553148  0.006124597220341969  0.9999034844656922  1.0000
  Ni  Ni5       1.0  0.004843009610388097  0.008624597416403288  0.9999942971740453  1.0000
  Ni  Ni6       1.0  0.007343009375527067  0.008373791966010182  0.9999034843288545  1.0000
  Ni  Ni7       1.0  0.007343009375527067  0.003875402746981143  0.9999034843288545  1.0000
  Ni  Ni8       1.0  0.009843009140666036  0.008624597416403288  0.00017592255520428436  1.0000
  Ni  Ni9       1.0  0.007343009375527067  0.0011245973728341062  8.510986462479578e-05  1.0000
  Ni  Ni10      1.0  0.009843009140666036  0.003624597296588038  0.00017592255520428436  1.0000
  Ga  Ga7       1.0  0.004529027813433162  0.006124597220341969  0.9998012662244937  1.0000
  Ga  Ga8       1.0  0.00015699076086358305  0.006124597220341969  0.9996424516303511  1.0000
  Ga  Ga9       1.0  0.0023430093559553148  0.0011245973728341062  0.9995402336807112  1.0000
  Ga  Ga10      1.0  0.009529028322298726  0.0011245973728341062  0.9996196411427787  1.0000
  Ga  Ga11      1.0  0.00515699091804922  0.0011245973728341062  0.9998240770342827  1.0000
  Ga  Ga12      1.0  0.007343009375527067  0.006124597220341969  0.9997218590796438  1.0000
  Ni  Ni11      1.0  0.0023430093559553148  0.0033737921185023187  0.9997218589299218  1.0000
  Ni  Ni12      1.0  0.0023430093559553148  0.008875402866796393  0.9997218589299218  1.0000
  Ni  Ni13      1.0  0.004843009610388097  0.003624597296588038  0.9996310463890643  1.0000
  Ni  Ni14      1.0  0.0023430093559553148  0.006124597220341969  0.9995402336807112  1.0000
  Ni  Ni15      1.0  0.004843009610388097  0.008624597416403288  0.9996310463890643  1.0000
  Ni  Ni16      1.0  0.007343009375527067  0.008373791966010182  0.9995402338304332  1.0000
  Ni  Ni17      1.0  0.007343009375527067  0.003875402746981143  0.9995402338304332  1.0000
  Ni  Ni18      1.0  0.009843009140666036  0.008624597416403288  0.9998126717702234  1.0000
  Ni  Ni19      1.0  0.007343009375527067  0.0011245973728341062  0.9997218590796438  1.0000
  Ni  Ni20      1.0  0.009843009140666036  0.003624597296588038  0.9998126717702234  1.0000
  Ga  Ga13      1.0  0.004529027813433162  0.006124597220341969  0.9994380157260725  1.0000
  Ga  Ga14      1.0  0.00015699076086358305  0.006124597220341969  0.9992792011319299  1.0000
  Ga  Ga15      1.0  0.0023430093559553148  0.0011245973728341062  0.9991769828957303  1.0000
  Ga  Ga16      1.0  0.009529028322298726  0.0011245973728341062  0.9992563900712381  1.0000
  Ga  Ga17      1.0  0.00515699091804922  0.0011245973728341062  0.9994608265358613  1.0000
  Ga  Ga18      1.0  0.007343009375527067  0.006124597220341969  0.9993586082946629  1.0000
  Ni  Ni21      1.0  0.0023430093559553148  0.0033737921185023187  0.9993586084315006  1.0000
  Ni  Ni22      1.0  0.0023430093559553148  0.008875402866796393  0.9993586084315006  1.0000
  Ni  Ni23      1.0  0.004843009610388097  0.003624597296588038  0.9992677956040834  1.0000
  Ni  Ni24      1.0  0.0023430093559553148  0.006124597220341969  0.9991769828957303  1.0000
  Ni  Ni25      1.0  0.004843009610388097  0.008624597416403288  0.9992677956040834  1.0000
  Ni  Ni26      1.0  0.007343009375527067  0.008373791966010182  0.9991769830454522  1.0000
  Ni  Ni27      1.0  0.007343009375527067  0.003875402746981143  0.9991769830454522  1.0000
  Ni  Ni28      1.0  0.009843009140666036  0.008624597416403288  0.9994494209852424  1.0000
  Ni  Ni29      1.0  0.007343009375527067  0.0011245973728341062  0.9993586082946629  1.0000
  Ni  Ni30      1.0  0.009843009140666036  0.003624597296588038  0.9994494209852424  1.0000
