data_image0
_chemical_formula_structural       HSn2Rh6Sn2Rh6Sn2Rh6Sn2Rh6
_chemical_formula_sum              "H1 Sn8 Rh24"
_cell_length_a       8.098448753356934
_cell_length_b       8.098448753356934
_cell_length_c       100.72439575195312
_cell_angle_alpha    90.0
_cell_angle_beta     90.0
_cell_angle_gamma    90.0

_space_group_name_H-M_alt    "P 1"
_space_group_IT_number       1

loop_
  _space_group_symop_operation_xyz
  'x, y, z'

loop_
  _atom_site_type_symbol
  _atom_site_label
  _atom_site_symmetry_multiplicity
  _atom_site_fract_x
  _atom_site_fract_y
  _atom_site_fract_z
  _atom_site_occupancy
  H   H1        1.0  0.0012500000092000095  0.003750000257600268  0.00012231911049626168  1.0000
  Sn  Sn1       1.0  0.003750000257600268  0.0012500000092000095  0.9994280606364206  1.0000
  Sn  Sn2       1.0  0.0012500000092000095  0.003750000257600268  0.9998093533482203  1.0000
  Rh  Rh1       1.0  0.003750000257600268  0.003750000257600268  0.0  1.0000
  Rh  Rh2       1.0  0.0012500000092000095  0.0012500000092000095  0.0  1.0000
  Rh  Rh3       1.0  0.003750000257600268  0.0012500000092000095  0.9998093533482203  1.0000
  Rh  Rh4       1.0  0.0012500000092000095  0.0012500000092000095  0.9996187069923205  1.0000
  Rh  Rh5       1.0  0.003750000257600268  0.003750000257600268  0.9996187069923205  1.0000
  Rh  Rh6       1.0  0.0012500000092000095  0.003750000257600268  0.9994280606364206  1.0000
  Sn  Sn3       1.0  0.003750000257600268  0.006250000276000287  0.9994280606364206  1.0000
  Sn  Sn4       1.0  0.0012500000092000095  0.008750000294400305  0.9998093533482203  1.0000
  Rh  Rh7       1.0  0.003750000257600268  0.008750000294400305  0.0  1.0000
  Rh  Rh8       1.0  0.0012500000092000095  0.006250000276000287  0.0  1.0000
  Rh  Rh9       1.0  0.003750000257600268  0.006250000276000287  0.9998093533482203  1.0000
  Rh  Rh10      1.0  0.0012500000092000095  0.006250000276000287  0.9996187069923205  1.0000
  Rh  Rh11      1.0  0.003750000257600268  0.008750000294400305  0.9996187069923205  1.0000
  Rh  Rh12      1.0  0.0012500000092000095  0.008750000294400305  0.9994280606364206  1.0000
  Sn  Sn5       1.0  0.008750000294400305  0.0012500000092000095  0.9994280606364206  1.0000
  Sn  Sn6       1.0  0.006250000276000287  0.003750000257600268  0.9998093533482203  1.0000
  Rh  Rh13      1.0  0.008750000294400305  0.003750000257600268  0.0  1.0000
  Rh  Rh14      1.0  0.006250000276000287  0.0012500000092000095  0.0  1.0000
  Rh  Rh15      1.0  0.008750000294400305  0.0012500000092000095  0.9998093533482203  1.0000
  Rh  Rh16      1.0  0.006250000276000287  0.0012500000092000095  0.9996187069923205  1.0000
  Rh  Rh17      1.0  0.008750000294400305  0.003750000257600268  0.9996187069923205  1.0000
  Rh  Rh18      1.0  0.006250000276000287  0.003750000257600268  0.9994280606364206  1.0000
  Sn  Sn7       1.0  0.008750000294400305  0.006250000276000287  0.9994280606364206  1.0000
  Sn  Sn8       1.0  0.006250000276000287  0.008750000294400305  0.9998093533482203  1.0000
  Rh  Rh19      1.0  0.008750000294400305  0.008750000294400305  0.0  1.0000
  Rh  Rh20      1.0  0.006250000276000287  0.006250000276000287  0.0  1.0000
  Rh  Rh21      1.0  0.008750000294400305  0.006250000276000287  0.9998093533482203  1.0000
  Rh  Rh22      1.0  0.006250000276000287  0.006250000276000287  0.9996187069923205  1.0000
  Rh  Rh23      1.0  0.008750000294400305  0.008750000294400305  0.9996187069923205  1.0000
  Rh  Rh24      1.0  0.006250000276000287  0.008750000294400305  0.9994280606364206  1.0000
