data_image0
_chemical_formula_structural       HCo3Sb3V3Co3Sb3V3Co3Sb3V3Co3Sb3V3
_chemical_formula_sum              "H1 Co12 Sb12 V12"
_cell_length_a       8.25960922241211
_cell_length_b       8.259609168061228
_cell_length_c       100.34774017333984
_cell_angle_alpha    90.0
_cell_angle_beta     90.0
_cell_angle_gamma    120.00000021767526

_space_group_name_H-M_alt    "P 1"
_space_group_IT_number       1

loop_
  _space_group_symop_operation_xyz
  'x, y, z'

loop_
  _atom_site_type_symbol
  _atom_site_label
  _atom_site_symmetry_multiplicity
  _atom_site_fract_x
  _atom_site_fract_y
  _atom_site_fract_z
  _atom_site_occupancy
  H   H1        1.0  0.0008333299949849585  0.00500000043747101  8.625434784542491e-05  1.0000
  Co  Co1       1.0  4.585708457769888e-10  0.0008333320825481631  0.9996718766144402  1.0000
  Co  Co2       1.0  0.003333333668792033  0.0024999986563390398  0.9993358482335748  1.0000
  Co  Co3       1.0  0.0016666604820666274  0.004166666336827413  0.0  1.0000
  Sb  Sb1       1.0  4.585708457769888e-10  0.0008333320825481631  0.999419855551534  1.0000
  Sb  Sb2       1.0  0.003333333668792033  0.0024999986563390398  0.9990838268736781  1.0000
  Sb  Sb3       1.0  0.0016666625599617518  0.004166667899223877  0.9997584232009068  1.0000
  V   V1        1.0  0.001666667093100712  0.004166665295229769  0.9992518412126061  1.0000
  V   V2        1.0  0.009999998860477113  0.0008333346865422717  0.999926952224317  1.0000
  V   V3        1.0  0.003333333668792033  0.0024999986563390398  0.9995878698904619  1.0000
  Co  Co4       1.0  5.912309696720334e-10  0.005833332194519909  0.9996718766144402  1.0000
  Co  Co5       1.0  0.0033333337776239582  0.007499998833410639  0.9993358482335748  1.0000
  Co  Co6       1.0  0.0016666605345204265  0.009166666513899012  0.0  1.0000
  Sb  Sb4       1.0  5.912309696720334e-10  0.005833332194519909  0.999419855551534  1.0000
  Sb  Sb5       1.0  0.0033333337776239582  0.007499998833410639  0.9990838268736781  1.0000
  Sb  Sb6       1.0  0.0016666624083942663  0.009166667555496655  0.9997584232009068  1.0000
  V   V4        1.0  0.0016666672301216992  0.009166665472301367  0.9992518412126061  1.0000
  V   V5        1.0  0.00999999933140599  0.005833334798514018  0.999926952224317  1.0000
  V   V6        1.0  0.0033333337776239582  0.007499998833410639  0.9995878698904619  1.0000
  Co  Co7       1.0  0.005000000192466093  0.0008333320825481631  0.9996718766144402  1.0000
  Co  Co8       1.0  0.008333333515443532  0.0024999986563390398  0.9993358482335748  1.0000
  Co  Co9       1.0  0.0066666601032056225  0.004166666336827413  0.0  1.0000
  Sb  Sb7       1.0  0.005000000192466093  0.0008333320825481631  0.999419855551534  1.0000
  Sb  Sb8       1.0  0.008333333515443532  0.0024999986563390398  0.9990838268736781  1.0000
  Sb  Sb9       1.0  0.006666662237478873  0.004166667899223877  0.9997584232009068  1.0000
  V   V7        1.0  0.006666666798806896  0.004166665295229769  0.9992518412126061  1.0000
  V   V8        1.0  0.004999999239338118  0.0008333346865422717  0.999926952224317  1.0000
  V   V9        1.0  0.008333333515443532  0.0024999986563390398  0.9995878698904619  1.0000
  Co  Co10      1.0  0.005000000437882468  0.005833332194519909  0.9996718766144402  1.0000
  Co  Co11      1.0  0.008333333567897332  0.007499998833410639  0.9993358482335748  1.0000
  Co  Co12      1.0  0.006666660381171924  0.009166666513899012  0.0  1.0000
  Sb  Sb10      1.0  0.005000000437882468  0.005833332194519909  0.999419855551534  1.0000
  Sb  Sb11      1.0  0.008333333567897332  0.007499998833410639  0.9990838268736781  1.0000
  Sb  Sb12      1.0  0.006666662255045764  0.009166667555496655  0.9997584232009068  1.0000
  V   V10       1.0  0.006666667076773197  0.009166665472301367  0.9992518412126061  1.0000
  V   V11       1.0  0.004999999484754492  0.005833334798514018  0.999926952224317  1.0000
  V   V12       1.0  0.008333333567897332  0.007499998833410639  0.9995878698904619  1.0000
