data_image0
_chemical_formula_structural       HCu2Se4Cu2Se4Cu2Se4Cu2Se4
_chemical_formula_sum              "H1 Cu8 Se16"
_cell_length_a       5.106937885284424
_cell_length_b       7.719940185546875
_cell_length_c       107.7912368774414
_cell_angle_alpha    90.0
_cell_angle_beta     90.0
_cell_angle_gamma    90.0

_space_group_name_H-M_alt    "P 1"
_space_group_IT_number       1

loop_
  _space_group_symop_operation_xyz
  'x, y, z'

loop_
  _atom_site_type_symbol
  _atom_site_label
  _atom_site_symmetry_multiplicity
  _atom_site_fract_x
  _atom_site_fract_y
  _atom_site_fract_z
  _atom_site_occupancy
  H   H1        1.0  0.000584545058251498  0.0025000008878999043  0.0001142998155560713  1.0000
  Cu  Cu1       1.0  0.0012966837729136954  2.5000000184833845e-10  0.9995018311018017  1.0000
  Cu  Cu2       1.0  0.006486672971118181  0.0025000006466227563  0.999778712208335  1.0000
  Se  Se1       1.0  0.002977618917497858  0.00999999969116525  0.999889786586434  1.0000
  Se  Se2       1.0  0.009415454212291754  2.5000000184833845e-10  0.9997269769214349  1.0000
  Se  Se3       1.0  0.005584545058251498  0.0025000008878999043  0.0  1.0000
  Se  Se4       1.0  0.004415454577020128  0.0025000001640684607  0.9995688486474029  1.0000
  Cu  Cu3       1.0  0.0012966837729136954  2.5000000184833845e-10  0.9989175032654056  1.0000
  Cu  Cu4       1.0  0.006296683772913695  0.0025000001640684607  0.9992096671836037  1.0000
  Se  Se5       1.0  0.0031779126040788887  2.5000000184833845e-10  0.999276684729205  1.0000
  Se  Se6       1.0  0.009415454212291754  2.5000000184833845e-10  0.9991426493615206  1.0000
  Se  Se7       1.0  0.008177912604078888  0.0025000001640684607  0.9994348135562006  1.0000
  Se  Se8       1.0  0.004415454577020128  0.0025000001640684607  0.9989845208110069  1.0000
  Cu  Cu5       1.0  0.0012966837729136954  0.005000000328136921  0.9995018311018017  1.0000
  Cu  Cu6       1.0  0.006486672971118181  0.00750000073348253  0.999778712208335  1.0000
  Se  Se9       1.0  0.002977618917497858  0.004999999845582625  0.999889786586434  1.0000
  Se  Se10      1.0  0.009415454212291754  0.005000000328136921  0.9997269769214349  1.0000
  Se  Se11      1.0  0.005584545058251498  0.00750000073348253  0.0  1.0000
  Se  Se12      1.0  0.004415454577020128  0.0075000002509282345  0.9995688486474029  1.0000
  Cu  Cu7       1.0  0.0012966837729136954  0.005000000328136921  0.9989175032654056  1.0000
  Cu  Cu8       1.0  0.006296683772913695  0.0075000002509282345  0.9992096671836037  1.0000
  Se  Se13      1.0  0.0031779126040788887  0.005000000328136921  0.999276684729205  1.0000
  Se  Se14      1.0  0.009415454212291754  0.005000000328136921  0.9991426493615206  1.0000
  Se  Se15      1.0  0.008177912604078888  0.0075000002509282345  0.9994348135562006  1.0000
  Se  Se16      1.0  0.004415454577020128  0.0075000002509282345  0.9989845208110069  1.0000
