data_image0
_chemical_formula_structural       HIn4Mn4Rh8In4Mn4Rh8In4Mn4Rh8In4Mn4Rh8
_chemical_formula_sum              "H1 In16 Mn16 Rh32"
_cell_length_a       8.834465026855469
_cell_length_b       8.834465026855469
_cell_length_c       107.48146057128906
_cell_angle_alpha    90.0
_cell_angle_beta     90.0
_cell_angle_gamma    90.0

_space_group_name_H-M_alt    "P 1"
_space_group_IT_number       1

loop_
  _space_group_symop_operation_xyz
  'x, y, z'

loop_
  _atom_site_type_symbol
  _atom_site_label
  _atom_site_symmetry_multiplicity
  _atom_site_fract_x
  _atom_site_fract_y
  _atom_site_fract_z
  _atom_site_occupancy
  H   H1        1.0  0.0012500056673382552  0.006249997132596716  0.00011462868873870389  1.0000
  In  In1       1.0  0.0037499921230745082  0.003749987906304973  0.9998628673699106  1.0000
  In  In2       1.0  0.0012499999746993827  0.0012499999746993827  0.9995708351981252  1.0000
  In  In3       1.0  0.0037499997132596718  0.0037499997132596718  0.9992802310117754  1.0000
  In  In4       1.0  0.0012499999746993827  0.0012499999746993827  0.9989896271027044  1.0000
  Mn  Mn1       1.0  0.0012500061944344472  0.0012500009234725283  0.9998896508311086  1.0000
  Mn  Mn2       1.0  0.0037499997132596718  0.0037499997132596718  0.9995708351981252  1.0000
  Mn  Mn3       1.0  0.0012499999746993827  0.0012499999746993827  0.9992802310117754  1.0000
  Mn  Mn4       1.0  0.0037499997132596718  0.0037499997132596718  0.9989896271027044  1.0000
  Rh  Rh1       1.0  0.0037499988699057647  0.0012500081973999763  0.0  1.0000
  Rh  Rh2       1.0  0.0012500056673382552  0.0037499971831979504  0.9999999994454426  1.0000
  Rh  Rh3       1.0  0.0012499999746993827  0.0037499997132596718  0.9997161375685788  1.0000
  Rh  Rh4       1.0  0.0037499997132596718  0.0012499999746993827  0.9997161375685788  1.0000
  Rh  Rh5       1.0  0.0037499997132596718  0.0012499999746993827  0.9994255333822291  1.0000
  Rh  Rh6       1.0  0.0012499999746993827  0.0037499997132596718  0.9994255333822291  1.0000
  Rh  Rh7       1.0  0.0012499999746993827  0.0037499997132596718  0.9991349291958793  1.0000
  Rh  Rh8       1.0  0.0037499997132596718  0.0012499999746993827  0.9991349291958793  1.0000
  In  In5       1.0  0.0037499921230745082  0.00874998738342555  0.9998628673699106  1.0000
  In  In6       1.0  0.0012499999746993827  0.006249999662658437  0.9995708351981252  1.0000
  In  In7       1.0  0.0037499997132596718  0.008750000033734157  0.9992802310117754  1.0000
  In  In8       1.0  0.0012499999746993827  0.006249999662658437  0.9989896271027044  1.0000
  Mn  Mn5       1.0  0.0012500061944344472  0.006250000927689298  0.9998896508311086  1.0000
  Mn  Mn6       1.0  0.0037499997132596718  0.008750000033734157  0.9995708351981252  1.0000
  Mn  Mn7       1.0  0.0012499999746993827  0.006249999662658437  0.9992802310117754  1.0000
  Mn  Mn8       1.0  0.0037499997132596718  0.008750000033734157  0.9989896271027044  1.0000
  Rh  Rh9       1.0  0.0037499988699057647  0.006250008096197507  0.0  1.0000
  Rh  Rh10      1.0  0.0012500056673382552  0.008749996660318528  0.9999999994454426  1.0000
  Rh  Rh11      1.0  0.0012499999746993827  0.008750000033734157  0.9997161375685788  1.0000
  Rh  Rh12      1.0  0.0037499997132596718  0.006249999662658437  0.9997161375685788  1.0000
  Rh  Rh13      1.0  0.0037499997132596718  0.006249999662658437  0.9994255333822291  1.0000
  Rh  Rh14      1.0  0.0012499999746993827  0.008750000033734157  0.9994255333822291  1.0000
  Rh  Rh15      1.0  0.0012499999746993827  0.008750000033734157  0.9991349291958793  1.0000
  Rh  Rh16      1.0  0.0037499997132596718  0.006249999662658437  0.9991349291958793  1.0000
  In  In9       1.0  0.008749992443548993  0.003749987906304973  0.9998628673699106  1.0000
  In  In10      1.0  0.006249999662658437  0.0012499999746993827  0.9995708351981252  1.0000
  In  In11      1.0  0.008750000033734157  0.0037499997132596718  0.9992802310117754  1.0000
  In  In12      1.0  0.006249999662658437  0.0012499999746993827  0.9989896271027044  1.0000
  Mn  Mn9       1.0  0.00625000598781274  0.0012500009234725283  0.9998896508311086  1.0000
  Mn  Mn10      1.0  0.008750000033734157  0.0037499997132596718  0.9995708351981252  1.0000
  Mn  Mn11      1.0  0.006249999662658437  0.0012499999746993827  0.9992802310117754  1.0000
  Mn  Mn12      1.0  0.008750000033734157  0.0037499997132596718  0.9989896271027044  1.0000
  Rh  Rh17      1.0  0.008749998347026342  0.0012500081973999763  0.0  1.0000
  Rh  Rh18      1.0  0.006250005566135786  0.0037499971831979504  0.9999999994454426  1.0000
  Rh  Rh19      1.0  0.006249999662658437  0.0037499997132596718  0.9997161375685788  1.0000
  Rh  Rh20      1.0  0.008750000033734157  0.0012499999746993827  0.9997161375685788  1.0000
  Rh  Rh21      1.0  0.008750000033734157  0.0012499999746993827  0.9994255333822291  1.0000
  Rh  Rh22      1.0  0.006249999662658437  0.0037499997132596718  0.9994255333822291  1.0000
  Rh  Rh23      1.0  0.006249999662658437  0.0037499997132596718  0.9991349291958793  1.0000
  Rh  Rh24      1.0  0.008750000033734157  0.0012499999746993827  0.9991349291958793  1.0000
  In  In13      1.0  0.008749992443548993  0.00874998738342555  0.9998628673699106  1.0000
  In  In14      1.0  0.006249999662658437  0.006249999662658437  0.9995708351981252  1.0000
  In  In15      1.0  0.008750000033734157  0.008750000033734157  0.9992802310117754  1.0000
  In  In16      1.0  0.006249999662658437  0.006249999662658437  0.9989896271027044  1.0000
  Mn  Mn13      1.0  0.00625000598781274  0.006250000927689298  0.9998896508311086  1.0000
  Mn  Mn14      1.0  0.008750000033734157  0.008750000033734157  0.9995708351981252  1.0000
  Mn  Mn15      1.0  0.006249999662658437  0.006249999662658437  0.9992802310117754  1.0000
  Mn  Mn16      1.0  0.008750000033734157  0.008750000033734157  0.9989896271027044  1.0000
  Rh  Rh25      1.0  0.008749998347026342  0.006250008096197507  0.0  1.0000
  Rh  Rh26      1.0  0.006250005566135786  0.008749996660318528  0.9999999994454426  1.0000
  Rh  Rh27      1.0  0.006249999662658437  0.008750000033734157  0.9997161375685788  1.0000
  Rh  Rh28      1.0  0.008750000033734157  0.006249999662658437  0.9997161375685788  1.0000
  Rh  Rh29      1.0  0.008750000033734157  0.006249999662658437  0.9994255333822291  1.0000
  Rh  Rh30      1.0  0.006249999662658437  0.008750000033734157  0.9994255333822291  1.0000
  Rh  Rh31      1.0  0.006249999662658437  0.008750000033734157  0.9991349291958793  1.0000
  Rh  Rh32      1.0  0.008750000033734157  0.006249999662658437  0.9991349291958793  1.0000
