data_image0
_chemical_formula_structural       HPd24Sb12
_chemical_formula_sum              "H1 Pd24 Sb12"
_cell_length_a       9.110724223396728
_cell_length_b       9.942400930768581
_cell_length_c       99.82720184326172
_cell_angle_alpha    90.88758930014153
_cell_angle_beta     97.71800405353898
_cell_angle_gamma    97.71800412526284

_space_group_name_H-M_alt    "P 1"
_space_group_IT_number       1

loop_
  _space_group_symop_operation_xyz
  'x, y, z'

loop_
  _atom_site_type_symbol
  _atom_site_label
  _atom_site_symmetry_multiplicity
  _atom_site_fract_x
  _atom_site_fract_y
  _atom_site_fract_z
  _atom_site_occupancy
  H   H1        1.0  0.003604435428027004  0.00497282994990168  5.18505100497041e-05  1.0000
  Pd  Pd1       1.0  0.00925389181394564  0.0001660240438566845  4.419816396312066e-06  1.0000
  Pd  Pd2       1.0  0.009286364480428995  0.005346308251912828  0.9995271714343981  1.0000
  Pd  Pd3       1.0  0.009310036149109167  0.007856970025947959  0.9997669746554954  1.0000
  Pd  Pd4       1.0  0.000822959813982689  0.0005383827637245437  0.9995463012722409  1.0000
  Pd  Pd5       1.0  0.0008394896644854875  0.002954569614895432  0.9998061151369313  1.0000
  Pd  Pd6       1.0  0.0006899636884055745  0.005302712932027312  2.141976617046688e-05  1.0000
  Pd  Pd7       1.0  0.0035539610725946725  0.0028638366425713497  0.9993826944487423  1.0000
  Pd  Pd8       1.0  0.003553960973316618  0.005363836423138168  0.9996316846266855  1.0000
  Pd  Pd9       1.0  0.0034131490876122134  0.007856544022908897  0.9998821750297281  1.0000
  Pd  Pd10      1.0  0.006555363453185531  0.0094890118819103  0.9995445555211474  1.0000
  Pd  Pd11      1.0  0.006528790310908982  0.0018655530004924022  0.9997834366028232  1.0000
  Pd  Pd12      1.0  0.00621701321687358  0.004022584014639565  0.9999642190841145  1.0000
  Pd  Pd13      1.0  0.006616490654306716  0.008967075682449907  0.9998369343495388  1.0000
  Pd  Pd14      1.0  0.006658843431025604  0.0040150903714826405  0.9993453427114806  1.0000
  Pd  Pd15      1.0  0.0066588433030773195  0.0065150899628829235  0.9995943328887805  1.0000
  Pd  Pd16      1.0  0.0034504811596293198  0.00986404513284733  0.9994298952373243  1.0000
  Pd  Pd17      1.0  0.0034504813141123317  0.0023640448453141954  0.9996788854496194  1.0000
  Pd  Pd18      1.0  0.0033378343781972904  0.004912772223054623  0.9999267435824518  1.0000
  Pd  Pd19      1.0  0.00179378474919818  0.007793796726253056  0.9995948335325536  1.0000
  Pd  Pd20      1.0  0.0017810204875941108  0.00013595505348170785  0.9998426159285592  1.0000
  Pd  Pd21      1.0  0.0017937847682274204  0.005293796756519702  0.999345843353335  1.0000
  Pd  Pd22      1.0  0.00831553962467928  0.002359016231287828  0.9995515311318148  1.0000
  Pd  Pd23      1.0  0.008383132251875256  0.004650083842846084  0.9997867841266104  1.0000
  Pd  Pd24      1.0  0.008302120675928119  0.0067965190718125325  0.9999988491545063  1.0000
  Sb  Sb1       1.0  0.0011096354906412512  0.00816856817070427  2.889286954305914e-05  1.0000
  Sb  Sb2       1.0  0.0011932499805003788  0.0033640268245533106  0.9995230883801802  1.0000
  Sb  Sb3       1.0  0.0011538069655298358  0.005858501239770237  0.9997678130609009  1.0000
  Sb  Sb4       1.0  0.008916074331825227  0.0005793799285297956  0.9997437288890471  1.0000
  Sb  Sb5       1.0  0.00880467355870882  0.002905192230670679  0.9999992654955336  1.0000
  Sb  Sb6       1.0  0.008916074959594211  0.008079379932313127  0.9994947383873629  1.0000
  Sb  Sb7       1.0  0.004168940444127127  0.009830478666034152  0.9997001173642561  1.0000
  Sb  Sb8       1.0  0.003641223062597888  0.0023506024820998217  0.9999510204093244  1.0000
  Sb  Sb9       1.0  0.004168940514734951  0.007330478696300796  0.9994511271856696  1.0000
  Sb  Sb10      1.0  0.0059403841100734624  0.0013019092685924616  0.9993486857221258  1.0000
  Sb  Sb11      1.0  0.005940384025130523  0.003801909143742548  0.9995976759003906  1.0000
  Sb  Sb12      1.0  0.005686650017280747  0.006391453741620861  0.999850543084451  1.0000
