data_image0
_chemical_formula_structural       COPt12W6
_chemical_formula_sum              "C1 O1 Pt12 W6"
_cell_length_a       4.845183576868318
_cell_length_b       7.419409775574357
_cell_length_c       98.78939819335938
_cell_angle_alpha    88.89050842562177
_cell_angle_beta     89.91038542552198
_cell_angle_gamma    84.02521276222585

_space_group_name_H-M_alt    "P 1"
_space_group_IT_number       1

loop_
  _space_group_symop_operation_xyz
  'x, y, z'

loop_
  _atom_site_type_symbol
  _atom_site_label
  _atom_site_symmetry_multiplicity
  _atom_site_fract_x
  _atom_site_fract_y
  _atom_site_fract_z
  _atom_site_occupancy
  C   C1        1.0  0.008723527594109255  0.00040210059903601124  0.9999987460654584  1.0000
  O   O1        1.0  0.008723527594109255  0.00040210059903601124  0.00012021683598784834  1.0000
  Pt  Pt1       1.0  0.0032595119275534573  0.007819817044066648  0.9993991944971325  1.0000
  Pt  Pt2       1.0  0.007350421256568375  0.0032743628291164112  0.9992667301313644  1.0000
  Pt  Pt3       1.0  0.003761981138570347  0.004143353836824224  0.9994884779235249  1.0000
  Pt  Pt4       1.0  0.007852890562169684  0.00959789864229594  0.9993560135124143  1.0000
  Pt  Pt5       1.0  0.005077693814884677  0.0069107262010766005  0.9996641236296934  1.0000
  Pt  Pt6       1.0  0.009168602759466809  0.0023652719861263637  0.9995316589622795  1.0000
  Pt  Pt7       1.0  0.005605689189137289  0.003197605567490205  0.9997504621671195  1.0000
  Pt  Pt8       1.0  0.009671072065068117  0.008688807799305892  0.9996209426450048  1.0000
  Pt  Pt9       1.0  0.006930165844535151  0.006012350124154752  0.9999304919435207  1.0000
  Pt  Pt10      1.0  0.0011325633498869008  0.0013415205227781425  0.9998087508820571  1.0000
  Pt  Pt11      1.0  0.0072686802508841195  0.002389191868227339  6.7570948200864206e-06  1.0000
  Pt  Pt12      1.0  0.001614921869281942  0.007738432790976449  0.9998892061579321  1.0000
  W   W1        1.0  0.008510746660818245  0.005981585314211152  0.9994438363881846  1.0000
  W   W2        1.0  0.0026016553901180156  0.0014361310992609144  0.9993113716670983  1.0000
  W   W3        1.0  0.00032892823675890743  0.005072494471221104  0.9997087654670805  1.0000
  W   W4        1.0  0.004419837287506817  0.0005270401931537247  0.9995763007997502  1.0000
  W   W5        1.0  0.002088624424720937  0.004227642993269293  0.9999512346329379  1.0000
  W   W6        1.0  0.006311228167473531  0.009553324811502523  0.9998380200324457  1.0000
