data_image0
_chemical_formula_structural       HSb8
_chemical_formula_sum              "H1 Sb8"
_cell_length_a       8.841442108154297
_cell_length_b       4.616843065072497
_cell_length_c       99.11063385009766
_cell_angle_alpha    92.65535432508945
_cell_angle_beta     90.0
_cell_angle_gamma    118.60445741431364

_space_group_name_H-M_alt    "P 1"
_space_group_IT_number       1

loop_
  _space_group_symop_operation_xyz
  'x, y, z'

loop_
  _atom_site_type_symbol
  _atom_site_label
  _atom_site_symmetry_multiplicity
  _atom_site_fract_x
  _atom_site_fract_y
  _atom_site_fract_z
  _atom_site_occupancy
  H   H1        1.0  0.003589007961334206  0.008652908968911563  0.00013554705266660667  1.0000
  Sb  Sb1       1.0  0.00019922389247173047  0.005093772508070214  1.0992811372745701e-05  1.0000
  Sb  Sb2       1.0  0.001767152593852633  0.0013470907687887976  0.9998614379759613  1.0000
  Sb  Sb3       1.0  0.003469746968067871  0.008131848431936303  0.9996366547896567  1.0000
  Sb  Sb4       1.0  0.004800776322208286  0.0034559643485126326  0.9994407192160605  1.0000
  Sb  Sb5       1.0  0.005199224115784154  0.005093772508070214  1.0992811372745701e-05  1.0000
  Sb  Sb6       1.0  0.0067671525011569105  0.0013470907687887976  0.9998614379759613  1.0000
  Sb  Sb7       1.0  0.008469747191380293  0.008131848431936303  0.9996366547896567  1.0000
  Sb  Sb8       1.0  0.00980077644018466  0.0034559643485126326  0.9994407192160605  1.0000
