data_image0
_chemical_formula_structural       COAl9Cu3Al9Cu3
_chemical_formula_sum              "C1 O1 Al18 Cu6"
_cell_length_a       6.2991116493498955
_cell_length_b       8.266853651915692
_cell_length_c       101.87126159667969
_cell_angle_alpha    103.94301382159948
_cell_angle_beta     71.56505151996689
_cell_angle_gamma    81.23428802816045

_space_group_name_H-M_alt    "P 1"
_space_group_IT_number       1

loop_
  _space_group_symop_operation_xyz
  'x, y, z'

loop_
  _atom_site_type_symbol
  _atom_site_label
  _atom_site_symmetry_multiplicity
  _atom_site_fract_x
  _atom_site_fract_y
  _atom_site_fract_z
  _atom_site_occupancy
  C   C1        1.0  0.00804773112216715  0.009450458762835049  0.00015623477284838126  1.0000
  O   O1        1.0  0.00804773112216715  0.009450458762835049  0.0002740301601437656  1.0000
  Al  Al1       1.0  0.008707038433910904  0.00500810867172331  0.999332180166941  1.0000
  Al  Al2       1.0  0.00204037217452545  0.00500810867172331  0.999462537758545  1.0000
  Al  Al3       1.0  0.005373705615912982  0.00500810867172331  0.9995928954028076  1.0000
  Al  Al4       1.0  0.007787783676488299  0.007765874869173163  0.999599615756886  1.0000
  Al  Al5       1.0  0.0011211167937132352  0.007765874869173163  0.9993389004683607  1.0000
  Al  Al6       1.0  0.004454450235100767  0.007765874869173163  0.9994692581126234  1.0000
  Al  Al7       1.0  0.009626294438112729  0.002250342474273457  0.9994558174449358  1.0000
  Al  Al8       1.0  0.0029596275553376637  0.002250342474273457  0.9995861750487293  1.0000
  Al  Al9       1.0  0.0062929609967251965  0.002250342474273457  0.9993254598006731  1.0000
  Cu  Cu1       1.0  0.0003737055966757716  8.108799566275752e-06  0.9995928954056836  1.0000
  Cu  Cu2       1.0  0.003707038765330349  8.108799566275752e-06  0.9993321801629604  1.0000
  Cu  Cu3       1.0  0.007040372206717882  8.108799566275752e-06  0.999462537807223  1.0000
  Al  Al10      1.0  0.008760902293475996  0.004951181090478149  0.9997187986586121  1.0000
  Al  Al11      1.0  0.0020380061887504213  0.005004557887658039  0.9998622641906573  1.0000
  Al  Al12      1.0  0.005468498791153024  0.0050013613192277885  0.999983800121784  1.0000
  Al  Al13      1.0  0.007892054854405672  0.007608057184587455  0.999979920590269  1.0000
  Al  Al14      1.0  0.0011854979945909022  0.007638685573055441  0.9997194292095358  1.0000
  Al  Al15      1.0  0.004422439805973729  0.007727697230026448  0.9998633152346873  1.0000
  Al  Al16      1.0  0.00952870498402787  0.0023604196562018896  0.9998598339297472  1.0000
  Al  Al17      1.0  0.0029700486024696075  0.00220562814267397  0.9999777004593885  1.0000
  Al  Al18      1.0  0.006321376568008209  0.0022343855152673897  0.999720002085498  1.0000
  Cu  Cu4       1.0  0.00040535509378969746  0.009918327288359924  0.9999557415819554  1.0000
  Cu  Cu5       1.0  0.003772124278353108  0.009959025178939577  0.9997157810360923  1.0000
  Cu  Cu6       1.0  0.007019516149682939  0.009991891021513486  0.999858053012401  1.0000
