data_image0
_chemical_formula_structural       HNb4Pd12Nb4Pd12Nb4Pd12Nb4Pd12
_chemical_formula_sum              "H1 Nb16 Pd48"
_cell_length_a       16.745416782973525
_cell_length_b       7.931778907775879
_cell_length_c       101.72711944580078
_cell_angle_alpha    90.0
_cell_angle_beta     76.30022543621855
_cell_angle_gamma    90.0

_space_group_name_H-M_alt    "P 1"
_space_group_IT_number       1

loop_
  _space_group_symop_operation_xyz
  'x, y, z'

loop_
  _atom_site_type_symbol
  _atom_site_label
  _atom_site_symmetry_multiplicity
  _atom_site_fract_x
  _atom_site_fract_y
  _atom_site_fract_z
  _atom_site_occupancy
  H   H1        1.0  0.005391916973527744  0.002500000131506601  0.9997139032342992  1.0000
  Nb  Nb1       1.0  0.0006387610472039464  2.499999962666478e-10  0.9993875612051667  1.0000
  Nb  Nb2       1.0  0.005671996156464623  3.5000000597102727e-10  0.9995700907186748  1.0000
  Nb  Nb3       1.0  0.0031324010701292795  0.002500000836006249  0.9994970186058965  1.0000
  Nb  Nb4       1.0  0.008151152459767679  0.002499999661840169  0.999656873161071  1.0000
  Pd  Pd1       1.0  0.0006112389917227818  0.002499999896673385  0.9995799931710251  1.0000
  Pd  Pd2       1.0  0.005638761431891613  0.002500000366339817  0.9993875612370435  1.0000
  Pd  Pd3       1.0  0.0019307714408491935  0.002500000601173033  0.9997142119008094  1.0000
  Pd  Pd4       1.0  0.006814307405540933  0.002499999661840169  0.9995460996600147  1.0000
  Pd  Pd5       1.0  0.0018930481210491477  2.499999962666478e-10  0.9995307435627773  1.0000
  Pd  Pd6       1.0  0.006979831638988108  0.009999998647360677  0.9997296907870766  1.0000
  Pd  Pd7       1.0  0.003173528761286956  5.499999973854853e-10  0.9996771029148104  1.0000
  Pd  Pd8       1.0  0.008116872209072661  0.00999999958669354  0.9994822874204418  1.0000
  Pd  Pd9       1.0  0.004416616500952502  4.500000156754067e-10  0.9994345703479858  1.0000
  Pd  Pd10      1.0  0.009272557308057414  0.00999999958669354  0.9996385040937074  1.0000
  Pd  Pd11      1.0  0.0044738090238376806  0.002500000836006249  0.999629508546172  1.0000
  Pd  Pd12      1.0  0.009376438548687888  0.002500000131506601  0.9994357371530467  1.0000
  Nb  Nb5       1.0  0.0006387610472039464  2.499999962666478e-10  0.9989977057321192  1.0000
  Nb  Nb6       1.0  0.005638761431891613  2.499999962666478e-10  0.9991926333540382  1.0000
  Nb  Nb7       1.0  0.0031387612395477795  0.002500000366339817  0.9990951696895604  1.0000
  Nb  Nb8       1.0  0.008138760937293184  0.002500000366339817  0.9992900973382601  1.0000
  Pd  Pd13      1.0  0.0006387610472039464  0.002500000366339817  0.9991926336151247  1.0000
  Pd  Pd14      1.0  0.005638761431891613  0.002500000366339817  0.998997705763996  1.0000
  Pd  Pd15      1.0  0.001888761143375863  0.002500000366339817  0.9993388292423846  1.0000
  Pd  Pd16      1.0  0.0068887614135731525  0.002500000366339817  0.9991439013957195  1.0000
  Pd  Pd17      1.0  0.001888761143375863  2.499999962666478e-10  0.9991439016523426  1.0000
  Pd  Pd18      1.0  0.0068887614135731525  2.499999962666478e-10  0.9993388292787249  1.0000
  Pd  Pd19      1.0  0.0031387612395477795  2.499999962666478e-10  0.9992900972796024  1.0000
  Pd  Pd20      1.0  0.008138760937293184  2.499999962666478e-10  0.9990951694552547  1.0000
  Pd  Pd21      1.0  0.004388761450210073  2.499999962666478e-10  0.9990464377223147  1.0000
  Pd  Pd22      1.0  0.009388761376936231  2.499999962666478e-10  0.9992413653620875  1.0000
  Pd  Pd23      1.0  0.004388761450210073  0.002500000366339817  0.9992413653123569  1.0000
  Pd  Pd24      1.0  0.009388761376936231  0.002500000366339817  0.9990464374790822  1.0000
  Nb  Nb9       1.0  0.0006387610472039464  0.005000000263013202  0.9993875612051667  1.0000
  Nb  Nb10      1.0  0.005671996156464623  0.005000000263013202  0.9995700907186748  1.0000
  Nb  Nb11      1.0  0.0031324010701292795  0.0075000008641862344  0.9994970186058965  1.0000
  Nb  Nb12      1.0  0.008151152459767679  0.007499999924853371  0.999656873161071  1.0000
  Pd  Pd25      1.0  0.0006112389917227818  0.007499999924853371  0.9995799931710251  1.0000
  Pd  Pd26      1.0  0.005638761431891613  0.007500000394519803  0.9993875612370435  1.0000
  Pd  Pd27      1.0  0.0019307714408491935  0.007500000394519803  0.9997142119008094  1.0000
  Pd  Pd28      1.0  0.006814307405540933  0.007499999924853371  0.9995460996600147  1.0000
  Pd  Pd29      1.0  0.0018930481210491477  0.005000000263013202  0.9995307435627773  1.0000
  Pd  Pd30      1.0  0.006979831638988108  0.004999998854013906  0.9997296907870766  1.0000
  Pd  Pd31      1.0  0.003173528761286956  0.005000000732679634  0.9996771029148104  1.0000
  Pd  Pd32      1.0  0.008116872209072661  0.00499999979334677  0.9994822874204418  1.0000
  Pd  Pd33      1.0  0.004416616500952502  0.005000000732679634  0.9994345703479858  1.0000
  Pd  Pd34      1.0  0.009272557308057414  0.00499999979334677  0.9996385040937074  1.0000
  Pd  Pd35      1.0  0.0044738090238376806  0.0075000008641862344  0.999629508546172  1.0000
  Pd  Pd36      1.0  0.009376438548687888  0.007500000394519803  0.9994357371530467  1.0000
  Nb  Nb13      1.0  0.0006387610472039464  0.005000000263013202  0.9989977057321192  1.0000
  Nb  Nb14      1.0  0.005638761431891613  0.005000000263013202  0.9991926333540382  1.0000
  Nb  Nb15      1.0  0.0031387612395477795  0.007500000394519803  0.9990951696895604  1.0000
  Nb  Nb16      1.0  0.008138760937293184  0.007500000394519803  0.9992900973382601  1.0000
  Pd  Pd37      1.0  0.0006387610472039464  0.007500000394519803  0.9991926336151247  1.0000
  Pd  Pd38      1.0  0.005638761431891613  0.007500000394519803  0.998997705763996  1.0000
  Pd  Pd39      1.0  0.001888761143375863  0.007500000394519803  0.9993388292423846  1.0000
  Pd  Pd40      1.0  0.0068887614135731525  0.007500000394519803  0.9991439013957195  1.0000
  Pd  Pd41      1.0  0.001888761143375863  0.005000000263013202  0.9991439016523426  1.0000
  Pd  Pd42      1.0  0.0068887614135731525  0.005000000263013202  0.9993388292787249  1.0000
  Pd  Pd43      1.0  0.0031387612395477795  0.005000000263013202  0.9992900972796024  1.0000
  Pd  Pd44      1.0  0.008138760937293184  0.005000000263013202  0.9990951694552547  1.0000
  Pd  Pd45      1.0  0.004388761450210073  0.005000000263013202  0.9990464377223147  1.0000
  Pd  Pd46      1.0  0.009388761376936231  0.005000000263013202  0.9992413653620875  1.0000
  Pd  Pd47      1.0  0.004388761450210073  0.007500000394519803  0.9992413653123569  1.0000
  Pd  Pd48      1.0  0.009388761376936231  0.007500000394519803  0.9990464374790822  1.0000
