data_image0
_chemical_formula_structural       COV3Ir3V3Ir3V3Ir3V3Ir3
_chemical_formula_sum              "C1 O1 V12 Ir12"
_cell_length_a       7.385311603546143
_cell_length_b       6.15928841475607
_cell_length_c       101.16381072998047
_cell_angle_alpha    71.56505082640511
_cell_angle_beta     90.0
_cell_angle_gamma    90.0

_space_group_name_H-M_alt    "P 1"
_space_group_IT_number       1

loop_
  _space_group_symop_operation_xyz
  'x, y, z'

loop_
  _atom_site_type_symbol
  _atom_site_label
  _atom_site_symmetry_multiplicity
  _atom_site_fract_x
  _atom_site_fract_y
  _atom_site_fract_z
  _atom_site_occupancy
  C   C1        1.0  0.00249999862798076  0.0006186729109918691  3.882124194979216e-05  1.0000
  O   O1        1.0  0.00249999862798076  0.0006186729109918691  0.00015744038675523825  1.0000
  V   V1        1.0  0.0025000029155408847  0.006672789723862398  0.9992916724397711  1.0000
  V   V2        1.0  0.0025000029155408847  0.003339456335275485  0.9995483830904744  1.0000
  V   V3        1.0  0.0025000029155408847  6.123099847908529e-06  0.9994200278285805  1.0000
  Ir  Ir1       1.0  2.949999896936296e-09  0.006672789723862398  0.9994842053945954  1.0000
  Ir  Ir2       1.0  2.949999896936296e-09  0.003339456335275485  0.9993558501356502  1.0000
  Ir  Ir3       1.0  2.949999896936296e-09  6.123099847908529e-06  0.9996125607834048  1.0000
  V   V4        1.0  0.0025000029155408847  0.006672789723862398  0.9996767383494196  1.0000
  V   V5        1.0  0.002499994340420636  0.003118199219396467  0.9999184530437047  1.0000
  V   V6        1.0  0.0025000024111220464  0.009993876900301516  0.9997982414400027  1.0000
  Ir  Ir4       1.0  2.00500003594597e-08  0.006679295832874984  0.999871401457137  1.0000
  Ir  Ir5       1.0  0.009999996529598393  0.003379874541357886  0.9997377934764943  1.0000
  Ir  Ir6       1.0  5.249999922575895e-09  0.0001420351973752394  0.9999816977902526  1.0000
  V   V7        1.0  0.007500002945806015  0.006672789723862398  0.9992916724397711  1.0000
  V   V8        1.0  0.007500002945806015  0.003339456335275485  0.9995483830904744  1.0000
  V   V9        1.0  0.007500002945806015  6.123099847908529e-06  0.9994200278285805  1.0000
  Ir  Ir7       1.0  0.0050000028045687405  0.006672789723862398  0.9994842053945954  1.0000
  Ir  Ir8       1.0  0.0050000028045687405  0.003339456335275485  0.9993558501356502  1.0000
  Ir  Ir9       1.0  0.0050000028045687405  6.123099847908529e-06  0.9996125607834048  1.0000
  V   V10       1.0  0.007500002945806015  0.006672789723862398  0.9996767383494196  1.0000
  V   V11       1.0  0.007499994370685766  0.003118199219396467  0.9999184530437047  1.0000
  V   V12       1.0  0.007500002441387177  0.009993876900301516  0.9997982414400027  1.0000
  Ir  Ir10      1.0  0.005000019954809237  0.006679295832874984  0.999871401457137  1.0000
  Ir  Ir11      1.0  0.004999996751542683  0.003379874541357886  0.9997377934764943  1.0000
  Ir  Ir12      1.0  0.005000005326662931  0.0001420351973752394  0.9999816977902526  1.0000
