data_image0
_chemical_formula_structural       HV6Pd2V6Pd2
_chemical_formula_sum              "H1 V12 Pd4"
_cell_length_a       4.823716640472412
_cell_length_b       4.823716640472412
_cell_length_c       103.7660140991211
_cell_angle_alpha    90.0
_cell_angle_beta     90.0
_cell_angle_gamma    90.0

_space_group_name_H-M_alt    "P 1"
_space_group_IT_number       1

loop_
  _space_group_symop_operation_xyz
  'x, y, z'

loop_
  _atom_site_type_symbol
  _atom_site_label
  _atom_site_symmetry_multiplicity
  _atom_site_fract_x
  _atom_site_fract_y
  _atom_site_fract_z
  _atom_site_occupancy
  H   H1        1.0  0.0037499998764341912  0.00624999992277137  0.00011873365861276443  1.0000
  V   V1        1.0  0.0037499998764341912  0.0037499998764341912  0.0  1.0000
  V   V2        1.0  0.0037499998764341912  0.008749999969108548  0.0  1.0000
  V   V3        1.0  0.008749999969108548  0.0012500000231685893  0.00011621657673703327  1.0000
  V   V4        1.0  0.008749999969108548  0.0012500000231685893  0.9998837839976769  1.0000
  V   V5        1.0  0.00624999992277137  0.00624999992277137  0.9997675679953538  1.0000
  V   V6        1.0  0.0012500000231685893  0.00624999992277137  0.9997675679953538  1.0000
  Pd  Pd1       1.0  0.008749999969108548  0.00624999992277137  0.0  1.0000
  Pd  Pd2       1.0  0.0037499998764341912  0.0012500000231685893  0.9997675679953538  1.0000
  V   V7        1.0  0.0037499998764341912  0.0037499998764341912  0.9995351354162937  1.0000
  V   V8        1.0  0.0037499998764341912  0.008749999969108548  0.9995351354162937  1.0000
  V   V9        1.0  0.008749999969108548  0.0012500000231685893  0.9996513514186168  1.0000
  V   V10       1.0  0.008749999969108548  0.0012500000231685893  0.9994189191267636  1.0000
  V   V11       1.0  0.00624999992277137  0.00624999992277137  0.9993027031244405  1.0000
  V   V12       1.0  0.0012500000231685893  0.00624999992277137  0.9993027031244405  1.0000
  Pd  Pd3       1.0  0.008749999969108548  0.00624999992277137  0.9995351354162937  1.0000
  Pd  Pd4       1.0  0.0037499998764341912  0.0012500000231685893  0.9993027031244405  1.0000
