data_image0
_chemical_formula_structural       COAl6Pd4Al6Pd4
_chemical_formula_sum              "C1 O1 Al12 Pd8"
_cell_length_a       7.391180038452148
_cell_length_b       6.767815591101687
_cell_length_c       35.861602783203125
_cell_angle_alpha    71.62323722827061
_cell_angle_beta     90.0
_cell_angle_gamma    56.9033080792253

_space_group_name_H-M_alt    "P 1"
_space_group_IT_number       1

loop_
  _space_group_symop_operation_xyz
  'x, y, z'

loop_
  _atom_site_type_symbol
  _atom_site_label
  _atom_site_symmetry_multiplicity
  _atom_site_fract_x
  _atom_site_fract_y
  _atom_site_fract_z
  _atom_site_occupancy
  C   C1        1.0  0.006031483003297801  0.0038696998930169784  0.9998948214487552  1.0000
  O   O1        1.0  0.006031483003297801  0.0038696998930169784  0.0002294410302868871  1.0000
  Al  Al1       1.0  0.000416048945691658  5.048730188925045e-05  0.998796134677245  1.0000
  Al  Al2       1.0  0.005477227037468901  0.009949513060679357  0.999408036028408  1.0000
  Al  Al3       1.0  0.008857557858583427  0.006500802304580676  0.9990073294316636  1.0000
  Al  Al4       1.0  0.0037245895106678166  0.006663528060043024  0.9995709902414022  1.0000
  Al  Al5       1.0  0.007097531798286558  0.003557561121273386  0.9991760450603672  1.0000
  Al  Al6       1.0  0.0022011891095456487  0.0036937082042964955  0.9996787417012443  1.0000
  Pd  Pd1       1.0  0.0013570945656477078  0.0015913457102263804  0.9993106062237628  1.0000
  Pd  Pd2       1.0  0.006211599324064521  0.0018884273356825027  0.9998278149726995  1.0000
  Pd  Pd3       1.0  0.004539445608641464  0.008470360084035978  0.9988901470893423  1.0000
  Pd  Pd4       1.0  0.009583950913331977  0.008435031540724353  0.9994712537630457  1.0000
  Al  Al7       1.0  0.000416048945691658  5.048730188925045e-05  0.9976061988310487  1.0000
  Al  Al8       1.0  0.0054160491435188566  5.048730188925045e-05  0.9982011669619062  1.0000
  Al  Al9       1.0  0.008857557858583427  0.006500802304580676  0.9978173940009859  1.0000
  Al  Al10      1.0  0.0038575583222803  0.006500802304580676  0.9984123617163247  1.0000
  Al  Al11      1.0  0.00697453935301908  0.0036001725952807466  0.9979899721233887  1.0000
  Al  Al12      1.0  0.0019745395647067826  0.0036001725952807466  0.9985849398387275  1.0000
  Pd  Pd5       1.0  0.0012926519889794443  0.0016306146385302817  0.9981071540607399  1.0000
  Pd  Pd6       1.0  0.006292652155305497  0.0016306146385302817  0.9987021221915974  1.0000
  Pd  Pd7       1.0  0.004539445608641464  0.008470360084035978  0.9977002116586646  1.0000
  Pd  Pd8       1.0  0.009539445648962933  0.008470360084035978  0.9982951793740035  1.0000
