data_image0
_chemical_formula_structural       COAl12Ru6
_chemical_formula_sum              "C1 O1 Al12 Ru6"
_cell_length_a       4.6972310040467375
_cell_length_b       5.0396059356289005
_cell_length_c       103.55667114257812
_cell_angle_alpha    91.08619384991582
_cell_angle_beta     91.1581523201807
_cell_angle_gamma    103.8616273766387

_space_group_name_H-M_alt    "P 1"
_space_group_IT_number       1

loop_
  _space_group_symop_operation_xyz
  'x, y, z'

loop_
  _atom_site_type_symbol
  _atom_site_label
  _atom_site_symmetry_multiplicity
  _atom_site_fract_x
  _atom_site_fract_y
  _atom_site_fract_z
  _atom_site_occupancy
  C   C1        1.0  0.0028699511160512952  0.006643500935031699  9.513422774426563e-05  1.0000
  O   O1        1.0  0.0028699511160512952  0.006643500935031699  0.00021101304256415573  1.0000
  Al  Al1       1.0  0.00663750734820931  0.003749999862911085  0.9991496697635717  1.0000
  Al  Al2       1.0  0.001081951788903863  0.00041666666730133756  0.9995097160164429  1.0000
  Al  Al3       1.0  0.005398086464708121  0.007078121537743296  0.9998862577514412  1.0000
  Al  Al4       1.0  0.0019552854763849924  0.004889524049587534  0.9990265855122848  1.0000
  Al  Al5       1.0  0.006399730024345049  0.0015561906159761983  0.9993866317736685  1.0000
  Al  Al6       1.0  0.0008189226681418408  0.008210940553274775  0.9997482254739354  1.0000
  Al  Al7       1.0  0.00028861883600209663  0.007389524338997465  0.9992966201600477  1.0000
  Al  Al8       1.0  0.004733063459136769  0.004056190619784223  0.9996566661334493  1.0000
  Al  Al9       1.0  0.009439772477974184  0.0009400513427536286  9.521656307969633e-06  1.0000
  Al  Al10      1.0  0.004970840856559711  0.006250000152321016  0.9994197044114709  1.0000
  Al  Al11      1.0  0.009438816910602301  0.00291099228484303  0.9997746682795616  1.0000
  Al  Al12      1.0  0.0005263963325805688  0.009583333871534257  0.9990596581503727  1.0000
  Ru  Ru1       1.0  0.00014804821409932306  0.00603524275120124  0.9999693287598534  1.0000
  Ru  Ru2       1.0  0.0015186186390436403  0.002653095287043959  0.9992681506204101  1.0000
  Ru  Ru3       1.0  0.005963063365624148  0.009319762154266631  0.9996281967937404  1.0000
  Ru  Ru4       1.0  0.009851952316497091  0.00515309538605262  0.9995381855647099  1.0000
  Ru  Ru5       1.0  0.004355391015197246  0.0018678060002489778  0.9998913125255621  1.0000
  Ru  Ru6       1.0  0.005407507596361468  0.00848642834366078  0.9991781393027293  1.0000
