data_image0
_chemical_formula_structural       HV6Pt6V6Pt6
_chemical_formula_sum              "H1 V12 Pt12"
_cell_length_a       4.819263458251953
_cell_length_b       6.997020827975436
_cell_length_c       101.09532928466797
_cell_angle_alpha    82.45815523379119
_cell_angle_beta     90.0
_cell_angle_gamma    90.0

_space_group_name_H-M_alt    "P 1"
_space_group_IT_number       1

loop_
  _space_group_symop_operation_xyz
  'x, y, z'

loop_
  _atom_site_type_symbol
  _atom_site_label
  _atom_site_symmetry_multiplicity
  _atom_site_fract_x
  _atom_site_fract_y
  _atom_site_fract_z
  _atom_site_occupancy
  H   H1        1.0  0.000837354682507039  0.006246681203463809  2.57096206698528e-05  1.0000
  V   V1        1.0  0.009030686816989634  0.0008348936150737028  0.9990527104059597  1.0000
  V   V2        1.0  0.009030686816989634  0.007501560193125988  0.9992235903146033  1.0000
  V   V3        1.0  0.009030686816989634  0.004168226870533792  0.9993944704287002  1.0000
  V   V4        1.0  0.0024433545963144553  0.002501560343501908  0.9992235904164152  1.0000
  V   V5        1.0  0.0024433545963144553  0.009168226451629445  0.9993944706241218  1.0000
  V   V6        1.0  0.0024433545963144553  0.005834893397565677  0.9990527103047576  1.0000
  Pt  Pt1       1.0  0.00392176410852256  0.002501560343501908  0.999479910484529  1.0000
  Pt  Pt2       1.0  0.00392176410852256  0.009168226451629445  0.9991381502612138  1.0000
  Pt  Pt3       1.0  0.00392176410852256  0.005834893397565677  0.9993090306676656  1.0000
  Pt  Pt4       1.0  0.007552277304781528  0.004168226870533792  0.9991381503605864  1.0000
  Pt  Pt5       1.0  0.007552277304781528  0.0008348936150737028  0.9993090304740735  1.0000
  Pt  Pt6       1.0  0.007552277304781528  0.007501560193125988  0.9994799106775113  1.0000
  V   V7        1.0  0.009030686816989634  0.0008348936150737028  0.9995653508369815  1.0000
  V   V8        1.0  0.009058934553299544  0.0075559468666367355  0.999730499966173  1.0000
  V   V9        1.0  0.009162645634422931  0.004172412960183825  0.9998964065870687  1.0000
  V   V10       1.0  0.0024153565389807663  0.0025559813886513235  0.9997304829524768  1.0000
  V   V11       1.0  0.002310261014989223  0.009171496053757793  0.9998963897556538  1.0000
  V   V12       1.0  0.0024433545963144553  0.005834893397565677  0.9995653504409852  1.0000
  Pt  Pt7       1.0  0.0036366987416699055  0.0023201833544753284  0.9999789232093128  1.0000
  Pt  Pt8       1.0  0.00392176410852256  0.009168226451629445  0.9996507909870299  1.0000
  Pt  Pt9       1.0  0.0038375017055470376  0.005828391787288777  0.9998257658933675  1.0000
  Pt  Pt10      1.0  0.007552277304781528  0.004168226870533792  0.9996507907916082  1.0000
  Pt  Pt11      1.0  0.007636521155758818  0.0008285033769619418  0.9998257635088819  1.0000
  Pt  Pt12      1.0  0.007837208169646993  0.007320437769048298  0.9999789234481543  1.0000
