data_image0
_chemical_formula_structural       COAl6Co3Os3Al6Co3Os3Al6Co3Os3Al6Co3Os3
_chemical_formula_sum              "C1 O1 Al24 Co12 Os12"
_cell_length_a       8.391155242919922
_cell_length_b       8.39115512241692
_cell_length_c       39.16892623901367
_cell_angle_alpha    90.0
_cell_angle_beta     90.0
_cell_angle_gamma    120.00000047504871

_space_group_name_H-M_alt    "P 1"
_space_group_IT_number       1

loop_
  _space_group_symop_operation_xyz
  'x, y, z'

loop_
  _atom_site_type_symbol
  _atom_site_label
  _atom_site_symmetry_multiplicity
  _atom_site_fract_x
  _atom_site_fract_y
  _atom_site_fract_z
  _atom_site_occupancy
  C   C1        1.0  0.003333334267170802  0.0024999979904731695  0.00022143154298167524  1.0000
  O   O1        1.0  0.003333334267170802  0.0024999979904731695  0.0005277967071209017  1.0000
  Al  Al1       1.0  0.003333334360989403  0.0024999977341559716  0.9978276345622167  1.0000
  Al  Al2       1.0  0.0016666678567177112  0.004166664428163139  0.9987022246925832  1.0000
  Al  Al3       1.0  0.009999999140445887  0.0008333325139726911  0.9995945844787721  1.0000
  Al  Al4       1.0  1.1072162437563054e-09  0.0008333310401488041  0.9982649296273999  1.0000
  Al  Al5       1.0  0.003333334360989403  0.0024999977341559716  0.9991395193773331  1.0000
  Al  Al6       1.0  0.001666662810577727  0.004166669041872699  0.0  1.0000
  Co  Co1       1.0  1.1072162437563054e-09  0.0008333310401488041  0.9989208722251748  1.0000
  Co  Co2       1.0  0.003333334267170802  0.0024999979904731695  0.9997792311717081  1.0000
  Co  Co3       1.0  0.0016666678567177112  0.004166664428163139  0.9980462820948083  1.0000
  Os  Os1       1.0  0.0016666671868018062  0.0041666651971147325  0.9993601086411398  1.0000
  Os  Os2       1.0  1.1072162437563054e-09  0.0008333310401488041  0.9976089870296251  1.0000
  Os  Os3       1.0  0.003333334360989403  0.0024999977341559716  0.9984835771599916  1.0000
  Al  Al7       1.0  0.0033333345678948777  0.0074999980724946725  0.9978276345622167  1.0000
  Al  Al8       1.0  0.0016666680636231862  0.009166664766501841  0.9987022246925832  1.0000
  Al  Al9       1.0  0.00999999932389671  0.005833332916390692  0.9995945844787721  1.0000
  Al  Al10      1.0  1.1476388177997412e-09  0.005833331378487505  0.9982649296273999  1.0000
  Al  Al11      1.0  0.0033333345678948777  0.0074999980724946725  0.9991395193773331  1.0000
  Al  Al12      1.0  0.001666662788913154  0.009166668867577004  0.0  1.0000
  Co  Co4       1.0  1.1476388177997412e-09  0.005833331378487505  0.9989208722251748  1.0000
  Co  Co5       1.0  0.003333334318170527  0.0074999980724946725  0.9997792311717081  1.0000
  Co  Co6       1.0  0.0016666680636231862  0.009166664766501841  0.9980462820948083  1.0000
  Os  Os4       1.0  0.0016666674663715795  0.009166665791770631  0.9993601086411398  1.0000
  Os  Os5       1.0  1.1476388177997412e-09  0.005833331378487505  0.9976089870296251  1.0000
  Os  Os6       1.0  0.0033333345678948777  0.0074999980724946725  0.9984835771599916  1.0000
  Al  Al13      1.0  0.008333334396505755  0.0024999977341559716  0.9978276345622167  1.0000
  Al  Al14      1.0  0.006666667725751163  0.004166664428163139  0.9987022246925832  1.0000
  Al  Al15      1.0  0.004999999104929534  0.0008333325139726911  0.9995945844787721  1.0000
  Al  Al16      1.0  0.005000001031743996  0.0008333310401488041  0.9982649296273999  1.0000
  Al  Al17      1.0  0.008333334396505755  0.0024999977341559716  0.9991395193773331  1.0000
  Al  Al18      1.0  0.006666662929335529  0.004166669041872699  0.0  1.0000
  Co  Co7       1.0  0.005000001031743996  0.0008333310401488041  0.9989208722251748  1.0000
  Co  Co8       1.0  0.008333334524664355  0.0024999979904731695  0.9997792311717081  1.0000
  Co  Co9       1.0  0.006666667725751163  0.004166664428163139  0.9980462820948083  1.0000
  Os  Os7       1.0  0.006666667222318158  0.0041666651971147325  0.9993601086411398  1.0000
  Os  Os8       1.0  0.005000001031743996  0.0008333310401488041  0.9976089870296251  1.0000
  Os  Os9       1.0  0.008333334396505755  0.0024999977341559716  0.9984835771599916  1.0000
  Al  Al19      1.0  0.00833333454791693  0.0074999980724946725  0.9978276345622167  1.0000
  Al  Al20      1.0  0.006666668099139538  0.009166664766501841  0.9987022246925832  1.0000
  Al  Al21      1.0  0.004999999066403158  0.005833332916390692  0.9995945844787721  1.0000
  Al  Al22      1.0  0.00500000140513237  0.005833331378487505  0.9982649296273999  1.0000
  Al  Al23      1.0  0.00833333454791693  0.0074999980724946725  0.9991395193773331  1.0000
  Al  Al24      1.0  0.006666662824429506  0.009166668867577004  0.0  1.0000
  Co  Co10      1.0  0.00500000140513237  0.005833331378487505  0.9989208722251748  1.0000
  Co  Co11      1.0  0.00833333454791693  0.0074999980724946725  0.9997792311717081  1.0000
  Co  Co12      1.0  0.006666668099139538  0.009166664766501841  0.9980462820948083  1.0000
  Os  Os10      1.0  0.006666667501887932  0.009166665791770631  0.9993601086411398  1.0000
  Os  Os11      1.0  0.00500000140513237  0.005833331378487505  0.9976089870296251  1.0000
  Os  Os12      1.0  0.00833333454791693  0.0074999980724946725  0.9984835771599916  1.0000
