data_image0
_chemical_formula_structural       V12Au4V12Au4H
_chemical_formula_sum              "V24 Au8 H1"
_cell_length_a       4.8841705322265625
_cell_length_b       6.907259941101074
_cell_length_c       104.53630065917969
_cell_angle_alpha    90.0
_cell_angle_beta     90.0
_cell_angle_gamma    90.0

_space_group_name_H-M_alt    "P 1"
_space_group_IT_number       1

loop_
  _space_group_symop_operation_xyz
  'x, y, z'

loop_
  _atom_site_type_symbol
  _atom_site_label
  _atom_site_symmetry_multiplicity
  _atom_site_fract_x
  _atom_site_fract_y
  _atom_site_fract_z
  _atom_site_occupancy
  V   V1        1.0  2.500000023986992e-09  0.006314460036240193  0.9987583706151324  1.0000
  V   V2        1.0  2.500000023986992e-09  0.0013144600955664581  0.9990887467798897  1.0000
  V   V3        1.0  2.500000023986992e-09  0.0038144601333195355  0.9992539348622683  1.0000
  V   V4        1.0  2.500000023986992e-09  0.00881446020882569  0.998923558697511  1.0000
  V   V5        1.0  0.0050000025017456085  0.006314460036240193  0.998923558697511  1.0000
  V   V6        1.0  0.0050000025017456085  0.0013144600955664581  0.9992539348622683  1.0000
  V   V7        1.0  0.0050000025017456085  0.00881446020882569  0.9987583706151324  1.0000
  V   V8        1.0  0.0050000025017456085  0.0038144601333195355  0.9990887467798897  1.0000
  V   V9        1.0  0.0075000022271637734  0.0025644600470267867  0.9988409645137764  1.0000
  V   V10       1.0  0.0075000022271637734  0.0075644601225329415  0.9991713406785336  1.0000
  V   V11       1.0  0.0025000023949637833  0.0025644600470267867  0.9988409645137764  1.0000
  V   V12       1.0  0.0025000023949637833  0.0075644601225329415  0.9991713406785336  1.0000
  Au  Au1       1.0  0.0050000025017456085  0.005064459949947444  0.9993365290460029  1.0000
  Au  Au2       1.0  0.0050000025017456085  6.446000084668287e-05  0.999006152596155  1.0000
  Au  Au3       1.0  2.500000023986992e-09  0.005064459949947444  0.999006152596155  1.0000
  Au  Au4       1.0  2.500000023986992e-09  6.446000084668287e-05  0.9993365290460029  1.0000
  V   V13       1.0  2.500000023986992e-09  0.006314460036240193  0.9994191226595562  1.0000
  V   V14       1.0  0.00999990584893967  0.0013493146806781698  0.9997586040496411  1.0000
  V   V15       1.0  0.00999999737621802  0.0037542453227949408  0.999906422413705  1.0000
  V   V16       1.0  2.500000023986992e-09  0.00881446020882569  0.9995843110270255  1.0000
  V   V17       1.0  0.0050000025017456085  0.006314460036240193  0.9995843110270255  1.0000
  V   V18       1.0  0.0050000135612917425  0.001377051597161424  0.9999063967555462  1.0000
  V   V19       1.0  0.0050000025017456085  0.00881446020882569  0.9994191226595562  1.0000
  V   V20       1.0  0.005000086020387103  0.0037793435688154298  0.9997587106735459  1.0000
  V   V21       1.0  0.0075000022271637734  0.0025644600470267867  0.9995017168432909  1.0000
  V   V22       1.0  0.007500739784481816  0.007564236300715456  0.9998315627394305  1.0000
  V   V23       1.0  0.0025000023949637833  0.0025644600470267867  0.9995017168432909  1.0000
  V   V24       1.0  0.00249932204219471  0.007564243312001305  0.9998315678710623  1.0000
  Au  Au5       1.0  0.0050002233113046295  0.005193925500466878  9.840759216574897e-06  1.0000
  Au  Au6       1.0  0.0050000025017456085  6.446000084668287e-05  0.9996669052107602  1.0000
  Au  Au7       1.0  2.500000023986992e-09  0.005064459949947444  0.9996669052107602  1.0000
  Au  Au8       1.0  0.009999785338023174  0.009935540006906182  9.787732354813411e-06  1.0000
  H   H1        1.0  0.005000025383565196  0.008835176940520271  0.0  1.0000
