data_image0
_chemical_formula_structural       COAl3Co3Al3Co3Al3Co3Al3Co3Al3Co3Al3Co3Al3Co3Al3Co3
_chemical_formula_sum              "C1 O1 Al24 Co24"
_cell_length_a       8.124338150024414
_cell_length_b       8.124338323064991
_cell_length_c       104.82584381103516
_cell_angle_alpha    90.0
_cell_angle_beta     90.0
_cell_angle_gamma    60.00000070456645

_space_group_name_H-M_alt    "P 1"
_space_group_IT_number       1

loop_
  _space_group_symop_operation_xyz
  'x, y, z'

loop_
  _atom_site_type_symbol
  _atom_site_label
  _atom_site_symmetry_multiplicity
  _atom_site_fract_x
  _atom_site_fract_y
  _atom_site_fract_z
  _atom_site_occupancy
  C   C1        1.0  0.004166665050900532  0.004166667513818917  8.143182713230308e-05  1.0000
  O   O1        1.0  0.004166665050900532  0.004166667513818917  0.00019590707748833256  1.0000
  Al  Al1       1.0  0.0041666668945425445  0.004166665660673369  0.9992106446864725  1.0000
  Al  Al2       1.0  0.0008333333236197072  0.0008333324173499627  0.999527050261821  1.0000
  Al  Al3       1.0  0.002500000256806665  0.0024999989728278966  0.9993688471898435  1.0000
  Co  Co1       1.0  0.0041666668945425445  0.004166665660673369  0.9994479485836806  1.0000
  Co  Co2       1.0  0.0008333333236197072  0.0008333324173499627  0.9992897460803095  1.0000
  Co  Co3       1.0  0.002500000256806665  0.0024999989728278966  0.9991315432926353  1.0000
  Al  Al4       1.0  0.0041666668945425445  0.004166665660673369  0.9996852530494952  1.0000
  Al  Al5       1.0  0.0008333342052211766  0.0008333329468201192  0.0  1.0000
  Al  Al6       1.0  0.00250000137717898  0.0024999976491525055  0.9998525199916548  1.0000
  Co  Co4       1.0  0.004166665050900532  0.004166667513818917  0.9999162004958538  1.0000
  Co  Co5       1.0  0.0008333333188679393  0.0008333333439227364  0.9997615219305935  1.0000
  Co  Co6       1.0  0.002500000256806665  0.0024999989728278966  0.9996061513713549  1.0000
  Al  Al7       1.0  0.00416666671206541  0.009166665988944866  0.9992106446864725  1.0000
  Al  Al8       1.0  0.0008333334720614219  0.005833332083783764  0.999527050261821  1.0000
  Al  Al9       1.0  0.00250000033906461  0.007499998771629237  0.9993688471898435  1.0000
  Co  Co7       1.0  0.00416666671206541  0.009166665988944866  0.9994479485836806  1.0000
  Co  Co8       1.0  0.0008333334720614219  0.005833332083783764  0.9992897460803095  1.0000
  Co  Co9       1.0  0.00250000033906461  0.007499998771629237  0.9991315432926353  1.0000
  Al  Al10      1.0  0.00416666671206541  0.009166665988944866  0.9996852530494952  1.0000
  Al  Al11      1.0  0.000833334353662891  0.005833332613253921  0.0  1.0000
  Al  Al12      1.0  0.0025000013270693854  0.007499997712688924  0.9998525199916548  1.0000
  Co  Co10      1.0  0.004166665265526016  0.00916666704788518  0.9999162004958538  1.0000
  Co  Co11      1.0  0.0008333334011258845  0.005833333142724077  0.9997615219305935  1.0000
  Co  Co12      1.0  0.00250000033906461  0.007499998771629237  0.9996061513713549  1.0000
  Al  Al13      1.0  0.009166666399325155  0.004166665660673369  0.9992106446864725  1.0000
  Al  Al14      1.0  0.005833333516204247  0.0008333324173499627  0.999527050261821  1.0000
  Al  Al15      1.0  0.007500000220123895  0.0024999989728278966  0.9993688471898435  1.0000
  Co  Co13      1.0  0.009166666399325155  0.004166665660673369  0.9994479485836806  1.0000
  Co  Co14      1.0  0.005833333516204247  0.0008333324173499627  0.9992897460803095  1.0000
  Co  Co15      1.0  0.007500000220123895  0.0024999989728278966  0.9991315432926353  1.0000
  Al  Al16      1.0  0.009166666399325155  0.004166665660673369  0.9996852530494952  1.0000
  Al  Al17      1.0  0.005833334168538407  0.0008333329468201192  0.0  1.0000
  Al  Al18      1.0  0.007500001799030829  0.0024999976491525055  0.9998525199916548  1.0000
  Co  Co16      1.0  0.009166665472752383  0.004166667513818917  0.9999162004958538  1.0000
  Co  Co17      1.0  0.00583333351145248  0.0008333333439227364  0.9997615219305935  1.0000
  Co  Co18      1.0  0.007500000220123895  0.0024999989728278966  0.9996061513713549  1.0000
  Al  Al19      1.0  0.00916666667538264  0.009166665988944866  0.9992106446864725  1.0000
  Al  Al20      1.0  0.005833333664645962  0.005833332083783764  0.999527050261821  1.0000
  Al  Al21      1.0  0.0074999998438472215  0.007499998771629237  0.9993688471898435  1.0000
  Co  Co19      1.0  0.00916666667538264  0.009166665988944866  0.9994479485836806  1.0000
  Co  Co20      1.0  0.005833333664645962  0.005833332083783764  0.9992897460803095  1.0000
  Co  Co21      1.0  0.0074999998438472215  0.007499998771629237  0.9991315432926353  1.0000
  Al  Al22      1.0  0.00916666667538264  0.009166665988944866  0.9996852530494952  1.0000
  Al  Al23      1.0  0.005833334316980121  0.005833332613253921  0.0  1.0000
  Al  Al24      1.0  0.007500001290386616  0.007499997712688924  0.9998525199916548  1.0000
  Co  Co22      1.0  0.009166665228843246  0.00916666704788518  0.9999162004958538  1.0000
  Co  Co23      1.0  0.005833333135175805  0.005833333142724077  0.9997615219305935  1.0000
  Co  Co24      1.0  0.0074999998438472215  0.007499998771629237  0.9996061513713549  1.0000
