data_image0
_chemical_formula_structural       COFe6Rh12Sn6
_chemical_formula_sum              "C1 O1 Fe6 Rh12 Sn6"
_cell_length_a       4.571696763762523
_cell_length_b       7.403573043613344
_cell_length_c       37.857330322265625
_cell_angle_alpha    91.89960988126603
_cell_angle_beta     93.53790482334942
_cell_angle_gamma    82.30181787867252

_space_group_name_H-M_alt    "P 1"
_space_group_IT_number       1

loop_
  _space_group_symop_operation_xyz
  'x, y, z'

loop_
  _atom_site_type_symbol
  _atom_site_label
  _atom_site_symmetry_multiplicity
  _atom_site_fract_x
  _atom_site_fract_y
  _atom_site_fract_z
  _atom_site_occupancy
  C   C1        1.0  0.00938476555052093  0.008834764378788287  0.00021514722432009622  1.0000
  O   O1        1.0  0.00938476555052093  0.008834764378788287  0.0005321266418918349  1.0000
  Fe  Fe1       1.0  7.992148954203672e-05  0.009583333522953635  0.9986511695083172  1.0000
  Fe  Fe2       1.0  0.003413254785228889  0.0006944443781337734  0.9977077836312087  1.0000
  Fe  Fe3       1.0  0.006746588016302191  0.005138888791821353  0.9981794764930451  1.0000
  Fe  Fe4       1.0  0.009920078021621639  0.002837769735962723  0.9999763172464409  1.0000
  Fe  Fe5       1.0  0.0034132544697268647  0.0040277777360161636  0.9991228626976189  1.0000
  Fe  Fe6       1.0  0.006653631571464376  0.008349884104342481  0.9996050529437919  1.0000
  Rh  Rh1       1.0  0.001746588178876782  0.0043055553095006395  0.9978257069977337  1.0000
  Rh  Rh2       1.0  0.005079921341878784  0.008750000040632921  0.9982973998611206  1.0000
  Rh  Rh3       1.0  0.008413254322063612  0.0031944442536954503  0.9987690930504223  1.0000
  Rh  Rh4       1.0  0.005079921356790122  0.007083333075991494  0.9975898603249991  1.0000
  Rh  Rh5       1.0  0.008413254636268559  0.0015277777969655462  0.9980615535198236  1.0000
  Rh  Rh6       1.0  0.0017465881639654442  0.005972222274142066  0.9985332465338552  1.0000
  Rh  Rh7       1.0  0.001746588257968187  0.00763888873087197  0.9992407856738822  1.0000
  Rh  Rh8       1.0  0.005196248492117297  0.0017156564277365264  0.9997670210609677  1.0000
  Rh  Rh9       1.0  0.008854909612842734  0.006364187246320542  0.00010724399878342183  1.0000
  Rh  Rh10      1.0  0.005079921103307492  0.00041666667767141627  0.9990049393304736  1.0000
  Rh  Rh11      1.0  0.008683754085341663  0.004909145172880405  0.9994522703828395  1.0000
  Rh  Rh12      1.0  0.0016730478240045777  0.00920083145034956  0.9999081624253174  1.0000
  Sn  Sn1       1.0  7.992150445337458e-05  0.007916666558312208  0.9979436299721955  1.0000
  Sn  Sn2       1.0  0.0034132548383888515  0.002361111025330498  0.9984153231657797  1.0000
  Sn  Sn3       1.0  0.0067465875685488  0.003472222081135688  0.997471936955122  1.0000
  Sn  Sn4       1.0  7.992149591736941e-05  0.0012499999695253085  0.9993587089782607  1.0000
  Sn  Sn5       1.0  0.003910043835079947  0.00537138427539083  0.9998594358501975  1.0000
  Sn  Sn6       1.0  0.006746587702097245  0.006805555248551257  0.9988870160236437  1.0000
