data_image0
_chemical_formula_structural       COAg4Au12
_chemical_formula_sum              "C1 O1 Ag4 Au12"
_cell_length_a       5.906440204076596
_cell_length_b       7.671714224085673
_cell_length_c       39.31314468383789
_cell_angle_alpha    96.36632231136954
_cell_angle_beta     112.64058473450949
_cell_angle_gamma    67.35941453747589

_space_group_name_H-M_alt    "P 1"
_space_group_IT_number       1

loop_
  _space_group_symop_operation_xyz
  'x, y, z'

loop_
  _atom_site_type_symbol
  _atom_site_label
  _atom_site_symmetry_multiplicity
  _atom_site_fract_x
  _atom_site_fract_y
  _atom_site_fract_z
  _atom_site_occupancy
  C   C1        1.0  0.007620125574689874  0.00599576156789985  0.0005671210635069407  1.0000
  O   O1        1.0  0.007620125574689874  0.00599576156789985  0.0008723623412749342  1.0000
  Ag  Ag1       1.0  0.00121902497723471  0.002007407671366108  0.9997324693620642  1.0000
  Ag  Ag2       1.0  0.006239033876727617  0.007038319165398467  0.9987701559333713  1.0000
  Ag  Ag3       1.0  0.008868093724950501  0.00777791411144783  0.9999406125726795  1.0000
  Ag  Ag4       1.0  0.0037390340307781136  0.0028716527971599237  0.9989327758100393  1.0000
  Au  Au1       1.0  0.003915543974078477  0.007739312609169923  0.9999520804738886  1.0000
  Au  Au2       1.0  0.00873903391524388  0.002876969469732799  0.9989338134862706  1.0000
  Au  Au3       1.0  0.006075774594649334  0.00045902213888475256  0.0003613255079308241  1.0000
  Au  Au4       1.0  0.0012310589126272827  0.0053689940448295725  0.9994201166512496  1.0000
  Au  Au5       1.0  0.0011319054269427497  0.00045947185470716846  0.00036134718208156443  1.0000
  Au  Au6       1.0  0.006247009780731252  0.0053689940448295725  0.9994201166541945  1.0000
  Au  Au7       1.0  0.0062258063889782025  0.002005884897977522  0.9997347026378205  1.0000
  Au  Au8       1.0  0.0012390338548369962  0.007033002756144525  0.9987691186339274  1.0000
  Au  Au9       1.0  0.0037470094261450957  0.009540978138916722  0.9992585343503411  1.0000
  Au  Au10      1.0  0.008768913585141931  0.004466657465530752  0.00022651531772685817  1.0000
  Au  Au11      1.0  0.008731058776722537  0.009540978138916722  0.9992585341022981  1.0000
  Au  Au12      1.0  0.003744616417542176  0.004466386773667797  0.000226635482875929  1.0000
