data_image0
_chemical_formula_structural       COAl24Ni8
_chemical_formula_sum              "C1 O1 Al24 Ni8"
_cell_length_a       7.403995513916016
_cell_length_b       8.252316040405354
_cell_length_c       36.9907341003418
_cell_angle_alpha    107.50877177957227
_cell_angle_beta     90.0
_cell_angle_gamma    90.0

_space_group_name_H-M_alt    "P 1"
_space_group_IT_number       1

loop_
  _space_group_symop_operation_xyz
  'x, y, z'

loop_
  _atom_site_type_symbol
  _atom_site_label
  _atom_site_symmetry_multiplicity
  _atom_site_fract_x
  _atom_site_fract_y
  _atom_site_fract_z
  _atom_site_occupancy
  C   C1        1.0  0.003515275162626429  0.004063432525640015  0.0002727272780662094  1.0000
  O   O1        1.0  0.003515275162626429  0.004063432525640015  0.0005971330977772325  1.0000
  Al  Al1       1.0  0.00750000008050335  0.007033035158649666  2.2389438736848845e-05  1.0000
  Al  Al2       1.0  0.00750000008050335  0.002033035026110642  0.9989069321519526  1.0000
  Al  Al3       1.0  0.005545825014922101  0.008448124498585936  0.9984705076033916  1.0000
  Al  Al4       1.0  0.005545825014922101  0.003448124366046913  0.9995859648723845  1.0000
  Al  Al5       1.0  0.009454174642938658  0.008448124498585936  0.9984705076033916  1.0000
  Al  Al6       1.0  0.009454174642938658  0.003448124366046913  0.9995859648723845  1.0000
  Al  Al7       1.0  0.004454174924700386  0.005162449901006224  0.9980880563083502  1.0000
  Al  Al8       1.0  0.004454174924700386  0.00016244960575188008  0.999203513566422  1.0000
  Al  Al9       1.0  0.005545825014922101  0.004837550364071824  0.9987804766774292  1.0000
  Al  Al10      1.0  0.005545825014922101  0.009837550969964505  0.9998959339959838  1.0000
  Al  Al11      1.0  0.0005458251080041003  0.001551875766492111  0.9983980253823878  1.0000
  Al  Al12      1.0  0.0005458251080041003  0.006551875899031135  0.999513482669172  1.0000
  Al  Al13      1.0  0.009454174642938658  0.004837550364071824  0.9987804766774292  1.0000
  Al  Al14      1.0  0.009454174642938658  0.009837550969964505  0.9998959339959838  1.0000
  Al  Al15      1.0  0.004454174924700386  0.001551875766492111  0.9983980253823878  1.0000
  Al  Al16      1.0  0.004454174924700386  0.006551875899031135  0.999513482669172  1.0000
  Al  Al17      1.0  0.0005458251080041003  0.005162449901006224  0.9980880563083502  1.0000
  Al  Al18      1.0  0.0005458251080041003  0.00016244960575188008  0.999203513566422  1.0000
  Al  Al19      1.0  0.00750000008050335  0.0028812916445187645  0.0002116281696206904  1.0000
  Al  Al20      1.0  0.00750000008050335  0.007881292013734617  0.999096170916513  1.0000
  Al  Al21      1.0  0.0025000001106921074  0.0029669648697515528  0.9990770580869345  1.0000
  Al  Al22      1.0  0.0025000001106921074  0.007966965238967406  0.0001925153896038007  1.0000
  Al  Al23      1.0  0.0025000001106921074  0.007118708383882454  0.9988878193560506  1.0000
  Al  Al24      1.0  0.0025000001106921074  0.0021187082513434304  3.276625043445234e-06  1.0000
  Ni  Ni1       1.0  0.00750000008050335  0.005362905708011955  0.9993434651022793  1.0000
  Ni  Ni2       1.0  0.00750000008050335  0.00036290539796530937  0.9982280078035812  1.0000
  Ni  Ni3       1.0  0.00750000008050335  0.0059245483433591406  0.9983533055533005  1.0000
  Ni  Ni4       1.0  0.00750000008050335  0.0009245480924817018  0.9994687628143507  1.0000
  Ni  Ni5       1.0  0.0025000001106921074  0.0046370945570660925  0.9997559824392771  1.0000
  Ni  Ni6       1.0  0.0025000001106921074  0.009637095162958775  0.9986405256048895  1.0000
  Ni  Ni7       1.0  0.0025000001106921074  0.004075451921718908  0.9985152278353139  1.0000
  Ni  Ni8       1.0  0.0025000001106921074  0.009075451580904274  0.9996306850903278  1.0000
