data_image0
_chemical_formula_structural       COPt12W4
_chemical_formula_sum              "C1 O1 Pt12 W4"
_cell_length_a       4.906856030597799
_cell_length_b       5.564324378967285
_cell_length_c       106.67440032958984
_cell_angle_alpha    90.0
_cell_angle_beta     91.10189461847516
_cell_angle_gamma    90.0

_space_group_name_H-M_alt    "P 1"
_space_group_IT_number       1

loop_
  _space_group_symop_operation_xyz
  'x, y, z'

loop_
  _atom_site_type_symbol
  _atom_site_label
  _atom_site_symmetry_multiplicity
  _atom_site_fract_x
  _atom_site_fract_y
  _atom_site_fract_z
  _atom_site_occupancy
  C   C1        1.0  0.006066915175846477  0.0025017732392503228  0.0001582537529203733  1.0000
  O   O1        1.0  0.006066915175846477  0.0025017732392503228  0.0002707452661322989  1.0000
  Pt  Pt1       1.0  0.009178047322404  0.007500000241018391  0.9995680106813556  1.0000
  Pt  Pt2       1.0  0.005874962002552359  0.0024984995734831437  0.9997814184788911  1.0000
  Pt  Pt3       1.0  0.0023030473983381475  0.002500000080339464  0.9993531372010905  1.0000
  Pt  Pt4       1.0  0.0026054644445338104  0.007494679760042519  2.304723948641253e-06  1.0000
  Pt  Pt5       1.0  0.009178047322404  0.002500000080339464  0.9995680106813556  1.0000
  Pt  Pt6       1.0  0.005874962002552359  0.007501499911005298  0.9997814184788911  1.0000
  Pt  Pt7       1.0  0.0023030473983381475  0.007500000241018391  0.9993531372010905  1.0000
  Pt  Pt8       1.0  0.0026054646343691805  0.0025053200591936883  2.304724116564528e-06  1.0000
  Pt  Pt9       1.0  0.0041780471705357035  0.005000000160678928  0.9995680103456203  1.0000
  Pt  Pt10      1.0  0.0008928399763158354  0.009999999651862325  0.9997824754733204  1.0000
  Pt  Pt11      1.0  0.007303047170535704  1.4999999481422612e-10  0.9993531369777371  1.0000
  Pt  Pt12      1.0  0.007749566537509768  0.0049999994911833975  3.905401391348627e-06  1.0000
  W   W1        1.0  0.007303047170535704  0.005000000160678928  0.9993531369777371  1.0000
  W   W2        1.0  0.0041780471705357035  1.4999999481422612e-10  0.9995680103456203  1.0000
  W   W3        1.0  0.007642033912554964  2.4999998803162325e-10  0.9999813573490202  1.0000
  W   W4        1.0  0.0008219526016618522  0.004999999825931163  0.999800193407281  1.0000
