data_image0
_chemical_formula_structural       COV12Si4V12Si4
_chemical_formula_sum              "C1 O1 V24 Si8"
_cell_length_a       4.712306976318359
_cell_length_b       6.66420841217041
_cell_length_c       109.9852523803711
_cell_angle_alpha    90.0
_cell_angle_beta     90.0
_cell_angle_gamma    90.0

_space_group_name_H-M_alt    "P 1"
_space_group_IT_number       1

loop_
  _space_group_symop_operation_xyz
  'x, y, z'

loop_
  _atom_site_type_symbol
  _atom_site_label
  _atom_site_symmetry_multiplicity
  _atom_site_fract_x
  _atom_site_fract_y
  _atom_site_fract_z
  _atom_site_occupancy
  C   C1        1.0  0.00875004752756004  0.009419122067496679  9.290087543086713e-05  1.0000
  O   O1        1.0  0.00875004752756004  0.009419122067496679  0.0002020060913970025  1.0000
  V   V1        1.0  0.005000017502664326  0.006830878133743202  0.9990326619459008  1.0000
  V   V2        1.0  0.005000017502664326  0.0018308779213233276  0.9993356209541878  1.0000
  V   V3        1.0  0.005000017502664326  0.009330878379703056  0.9988811824417572  1.0000
  V   V4        1.0  0.005000017502664326  0.004330877887783347  0.9991841414500443  1.0000
  V   V5        1.0  0.007500017360366242  0.0030808780443032546  0.9989569221938289  1.0000
  V   V6        1.0  0.007500017360366242  0.008080877977223294  0.9992598814730826  1.0000
  V   V7        1.0  0.0025000174473261824  0.0030808780443032546  0.9989569221938289  1.0000
  V   V8        1.0  0.0025000174473261824  0.008080877977223294  0.9992598814730826  1.0000
  V   V9        1.0  1.7400000725589602e-08  0.004330877887783347  0.9993356209541878  1.0000
  V   V10       1.0  1.7400000725589602e-08  0.009330878379703056  0.9990326619459008  1.0000
  V   V11       1.0  1.7400000725589602e-08  0.006830878133743202  0.9988811824417572  1.0000
  V   V12       1.0  1.7400000725589602e-08  0.0018308779213233276  0.9991841414500443  1.0000
  Si  Si1       1.0  1.7400000725589602e-08  0.005580878290263109  0.999108401968939  1.0000
  Si  Si2       1.0  1.7400000725589602e-08  0.0005808778682183591  0.9994113609772262  1.0000
  Si  Si3       1.0  0.005000017502664326  0.005580878290263109  0.9994113609772262  1.0000
  Si  Si4       1.0  0.005000017502664326  0.0005808778682183591  0.999108401968939  1.0000
  V   V13       1.0  0.005000017502664326  0.006830878133743202  0.999638580504408  1.0000
  V   V14       1.0  0.005000101300424876  0.0016926635760931457  0.999945192141544  1.0000
  V   V15       1.0  0.005000017502664326  0.009330878379703056  0.9994871010002645  1.0000
  V   V16       1.0  0.005000059401544601  0.004203121867365853  0.9997863390961368  1.0000
  V   V17       1.0  0.007500017360366242  0.0030808780443032546  0.9995628404813698  1.0000
  V   V18       1.0  0.00750003396180937  0.008080833257249752  0.9998708465122783  1.0000
  V   V19       1.0  0.0025000174473261824  0.0030808780443032546  0.9995628404813698  1.0000
  V   V20       1.0  0.0025000075655147967  0.008080832139250413  0.9998708448864791  1.0000
  V   V21       1.0  0.009999951207568103  0.004468810217680374  0.9999451910576779  1.0000
  V   V22       1.0  1.7400000725589602e-08  0.009330878379703056  0.999638580504408  1.0000
  V   V23       1.0  1.7400000725589602e-08  0.006830878133743202  0.9994871010002645  1.0000
  V   V24       1.0  0.009999982829364536  0.001958571473527779  0.9997863477670659  1.0000
  Si  Si5       1.0  1.7400000725589602e-08  0.005580878290263109  0.9997143199855133  1.0000
  Si  Si6       1.0  6.040000272669192e-08  0.00075741136127832  0.9999999945806693  1.0000
  Si  Si7       1.0  0.0049998467449635835  0.005403857069991695  0.0  1.0000
  Si  Si8       1.0  0.005000017502664326  0.0005808778682183591  0.9997143199855133  1.0000
