data_image0
_chemical_formula_structural       CONi18Sb6Ni18Sb6
_chemical_formula_sum              "C1 O1 Ni36 Sb12"
_cell_length_a       5.405869892047915
_cell_length_b       10.307535697195668
_cell_length_c       111.77606964111328
_cell_angle_alpha    82.56450156684166
_cell_angle_beta     112.84274974942245
_cell_angle_gamma    74.79763510181485

_space_group_name_H-M_alt    "P 1"
_space_group_IT_number       1

loop_
  _space_group_symop_operation_xyz
  'x, y, z'

loop_
  _atom_site_type_symbol
  _atom_site_label
  _atom_site_symmetry_multiplicity
  _atom_site_fract_x
  _atom_site_fract_y
  _atom_site_fract_z
  _atom_site_occupancy
  C   C1        1.0  0.003934499760556703  0.005360503497493287  9.535464145151815e-05  1.0000
  O   O1        1.0  0.003934499760556703  0.005360503497493287  0.0002027118311664488  1.0000
  Ni  Ni1       1.0  0.008506644453081073  0.008553185080042847  0.9991383688964947  1.0000
  Ni  Ni2       1.0  0.008506644563390746  0.001886519023605163  0.9993460064820273  1.0000
  Ni  Ni3       1.0  0.0085066452559997  0.005219852051824005  0.9989307312851893  1.0000
  Ni  Ni4       1.0  0.008506644820517132  0.00026305519433188787  0.9989253489786037  1.0000
  Ni  Ni5       1.0  0.008506644646325149  0.003596388392238344  0.9991329865996884  1.0000
  Ni  Ni6       1.0  0.008506645066849195  0.00692972180831459  0.9993406242293351  1.0000
  Ni  Ni7       1.0  0.006883181199557338  0.009678697622743154  0.9993096061434019  1.0000
  Ni  Ni8       1.0  0.0068831809702305825  0.0030120309845193638  0.9988943308932791  1.0000
  Ni  Ni9       1.0  0.006883180779033291  0.006345364206666908  0.9991019685137552  1.0000
  Ni  Ni10      1.0  0.0017535727888528657  0.001388567227969352  0.999096586412297  1.0000
  Ni  Ni11      1.0  0.0017535725296343476  0.004721900547081247  0.9993042240303388  1.0000
  Ni  Ni12      1.0  0.001753572848361406  0.008055233575300089  0.998888948559856  1.0000
  Ni  Ni13      1.0  0.0017535724381872602  0.009678697622743154  0.9993096063244277  1.0000
  Ni  Ni14      1.0  0.0017535725827424007  0.0030120309845193638  0.9988943308146992  1.0000
  Ni  Ni15      1.0  0.001753572765427005  0.006345364206666908  0.9991019687088201  1.0000
  Ni  Ni16      1.0  0.00337703643302895  0.00026305519433188787  0.9989253489000239  1.0000
  Ni  Ni17      1.0  0.0033770366327188616  0.003596388392238344  0.9991329867947534  1.0000
  Ni  Ni18      1.0  0.003377036305479116  0.00692972180831459  0.999340624410361  1.0000
  Sb  Sb1       1.0  0.006796775002528336  0.0013597653249535118  0.9991001746526489  1.0000
  Sb  Sb2       1.0  0.006796775491073608  0.0046930986440654075  0.9993078122847299  1.0000
  Sb  Sb3       1.0  0.006796775163833862  0.008026432060141654  0.9988925367974906  1.0000
  Sb  Sb4       1.0  0.0034634423412025902  0.008581987370916092  0.9991347806534254  1.0000
  Sb  Sb5       1.0  0.0034634419758333814  0.0019153209266210033  0.9993424187679063  1.0000
  Sb  Sb6       1.0  0.003463442668442336  0.005248653954839845  0.9989271430378178  1.0000
  Ni  Ni19      1.0  0.008408982824473983  0.008572650091755271  0.9997497799959328  1.0000
  Ni  Ni20      1.0  0.008232965773251612  0.0020106958381522805  0.9999432253245669  1.0000
  Ni  Ni21      1.0  0.0085066452559997  0.005219852051824005  0.9995536446546615  1.0000
  Ni  Ni22      1.0  0.008506644820517132  0.00026305519433188787  0.999548262348076  1.0000
  Ni  Ni23      1.0  0.008500555996903022  0.003596580769511077  0.9997529406016423  1.0000
  Ni  Ni24      1.0  0.008428097797888433  0.006934009959780987  0.9999362002568492  1.0000
  Ni  Ni25      1.0  0.0067490523067502  0.009736244801593748  0.9999121513167442  1.0000
  Ni  Ni26      1.0  0.0068831809702305825  0.0030120309845193638  0.9995172442627513  1.0000
  Ni  Ni27      1.0  0.006781921575256148  0.006314541566572565  0.9997166749560558  1.0000
  Ni  Ni28      1.0  0.0016422896051136225  0.0014693560830463148  0.9997111986339513  1.0000
  Ni  Ni29      1.0  0.0015867054823055743  0.004723572212495517  0.9999063408912919  1.0000
  Ni  Ni30      1.0  0.001753572848361406  0.008055233575300089  0.9995118616627029  1.0000
  Ni  Ni31      1.0  0.0014933553067389277  0.009736944496351832  0.9999118400754602  1.0000
  Ni  Ni32      1.0  0.0017535725827424007  0.0030120309845193638  0.9995172439175461  1.0000
  Ni  Ni33      1.0  0.0017526720588357876  0.006315551547254412  0.9997165529550701  1.0000
  Ni  Ni34      1.0  0.00337703643302895  0.00026305519433188787  0.9995482620028708  1.0000
  Ni  Ni35      1.0  0.003332812062721315  0.0035975096879953404  0.9997528541497838  1.0000
  Ni  Ni36      1.0  0.003018019966880337  0.0069350951847993465  0.9999361043900515  1.0000
  Sb  Sb7       1.0  0.006718127761477348  0.0013669311844341022  0.9997149008145163  1.0000
  Sb  Sb8       1.0  0.0068331749071331984  0.004731594267196989  0.9999378296511269  1.0000
  Sb  Sb9       1.0  0.006796775163833862  0.008026432060141654  0.9995154499003375  1.0000
  Sb  Sb10      1.0  0.0034649551492613295  0.008594922415362936  0.9997579130762201  1.0000
  Sb  Sb11      1.0  0.0035383315452680586  0.0017577775152620959  0.9999656048476248  1.0000
  Sb  Sb12      1.0  0.003463442668442336  0.005248653954839845  0.99955005640729  1.0000
