data_image0
_chemical_formula_structural       COV32
_chemical_formula_sum              "C1 O1 V32"
_cell_length_a       5.190807635153833
_cell_length_b       8.476552963256836
_cell_length_c       104.26850128173828
_cell_angle_alpha    90.0
_cell_angle_beta     91.44662945885071
_cell_angle_gamma    90.0

_space_group_name_H-M_alt    "P 1"
_space_group_IT_number       1

loop_
  _space_group_symop_operation_xyz
  'x, y, z'

loop_
  _atom_site_type_symbol
  _atom_site_label
  _atom_site_symmetry_multiplicity
  _atom_site_fract_x
  _atom_site_fract_y
  _atom_site_fract_z
  _atom_site_occupancy
  C   C1        1.0  0.005275873314934891  0.008750000703170793  0.0001952401488392491  1.0000
  O   O1        1.0  0.005275873314934891  0.008750000703170793  0.0003103272994795545  1.0000
  V   V1        1.0  0.0024999999928210052  0.0012500000219740873  0.9996512346247727  1.0000
  V   V2        1.0  0.0026785713824207485  0.0037500001757926984  3.366460761683614e-06  1.0000
  V   V3        1.0  0.004285714427243037  0.0012500000219740873  0.9998859889779549  1.0000
  V   V4        1.0  0.0008928571274735828  0.0037500001757926984  0.9997686115361594  1.0000
  V   V5        1.0  0.003928571289093818  0.0012500000219740873  0.9991817255913488  1.0000
  V   V6        1.0  0.004107142678693562  0.0037500001757926984  0.9995338571415148  1.0000
  V   V7        1.0  0.000714285693005123  0.0012500000219740873  0.9994164799859369  1.0000
  V   V8        1.0  0.0023214284237463956  0.0037500001757926984  0.9992991027885582  1.0000
  V   V9        1.0  0.0024999999928210052  0.0062500004394817465  0.9996512346247727  1.0000
  V   V10       1.0  0.0026785713824207485  0.008750000703170793  3.366460761683614e-06  1.0000
  V   V11       1.0  0.004285714427243037  0.0062500004394817465  0.9998859889779549  1.0000
  V   V12       1.0  0.0008928571274735828  0.008750000703170793  0.9997686115361594  1.0000
  V   V13       1.0  0.003928571289093818  0.0062500004394817465  0.9991817255913488  1.0000
  V   V14       1.0  0.004107142678693562  0.008750000703170793  0.9995338571415148  1.0000
  V   V15       1.0  0.000714285693005123  0.0062500004394817465  0.9994164799859369  1.0000
  V   V16       1.0  0.0023214284237463956  0.008750000703170793  0.9992991027885582  1.0000
  V   V17       1.0  0.007499999798988149  0.0012500000219740873  0.9996512345830848  1.0000
  V   V18       1.0  0.007678571547537625  0.0037500001757926984  3.3664195248882027e-06  1.0000
  V   V19       1.0  0.009285714412885048  0.0012500000219740873  0.9998859889364925  1.0000
  V   V20       1.0  0.005892856933640727  0.0037500001757926984  0.9997686120661171  1.0000
  V   V21       1.0  0.00892857163368556  0.0012500000219740873  0.9991817255503375  1.0000
  V   V22       1.0  0.009107142664335571  0.0037500001757926984  0.9995338573858753  1.0000
  V   V23       1.0  0.005714285544040984  0.0012500000219740873  0.9994164799443054  1.0000
  V   V24       1.0  0.007321428768338138  0.0037500001757926984  0.999299102747547  1.0000
  V   V25       1.0  0.007499999798988149  0.0062500004394817465  0.9996512345830848  1.0000
  V   V26       1.0  0.007678571547537625  0.008750000703170793  3.3664195248882027e-06  1.0000
  V   V27       1.0  0.009285714412885048  0.0062500004394817465  0.9998859889364925  1.0000
  V   V28       1.0  0.005892856933640727  0.008750000703170793  0.9997686120661171  1.0000
  V   V29       1.0  0.00892857163368556  0.0062500004394817465  0.9991817255503375  1.0000
  V   V30       1.0  0.009107142664335571  0.008750000703170793  0.9995338573858753  1.0000
  V   V31       1.0  0.005714285544040984  0.0062500004394817465  0.9994164799443054  1.0000
  V   V32       1.0  0.007321428768338138  0.008750000703170793  0.999299102747547  1.0000
