data_image0
_chemical_formula_structural       CORe12Ni4Re12Ni4
_chemical_formula_sum              "C1 O1 Re24 Ni8"
_cell_length_a       5.430757999420166
_cell_length_b       11.712603298387961
_cell_length_c       105.06570434570312
_cell_angle_alpha    68.02324079526906
_cell_angle_beta     90.0
_cell_angle_gamma    62.375956125419435

_space_group_name_H-M_alt    "P 1"
_space_group_IT_number       1

loop_
  _space_group_symop_operation_xyz
  'x, y, z'

loop_
  _atom_site_type_symbol
  _atom_site_label
  _atom_site_symmetry_multiplicity
  _atom_site_fract_x
  _atom_site_fract_y
  _atom_site_fract_z
  _atom_site_occupancy
  C   C1        1.0  0.004656245774133404  0.004549026113522583  0.999884956237846  1.0000
  O   O1        1.0  0.004656245774133404  0.004549026113522583  0.9999991707133823  1.0000
  Re  Re1       1.0  0.001689208506845188  0.0008532603916654526  0.9991331100156139  1.0000
  Re  Re2       1.0  0.0016892078193096796  0.005853260736220266  0.9993417041186283  1.0000
  Re  Re3       1.0  0.0016892082723220818  0.003355693388253248  0.9990287115630578  1.0000
  Re  Re4       1.0  0.0016892082247972793  0.00835569343577805  0.9992373056784639  1.0000
  Re  Re5       1.0  0.0066940743739552595  0.0008532603916654526  0.9991331100156139  1.0000
  Re  Re6       1.0  0.006694073343439057  0.005853260736220266  0.9993417041186283  1.0000
  Re  Re7       1.0  0.008359118242083737  0.004188215837575587  0.999202573609621  1.0000
  Re  Re8       1.0  0.008359117798518919  0.009188216281140405  0.9989939796893043  1.0000
  Re  Re9       1.0  0.00835911891859754  0.001685782741977788  0.9993069720663077  1.0000
  Re  Re10      1.0  0.008359118871072739  0.00668578278950259  0.9990983781625133  1.0000
  Re  Re11      1.0  0.003354252717954359  0.004188215837575587  0.999202573609621  1.0000
  Re  Re12      1.0  0.003354251588428152  0.009188216281140405  0.9989939796893043  1.0000
  Ni  Ni1       1.0  0.003357496936713945  0.0016874047238613842  0.9993069043992018  1.0000
  Ni  Ni2       1.0  0.003357496691169135  0.006687404969406194  0.9990983104871463  1.0000
  Ni  Ni3       1.0  0.006690830056185669  0.0033540716043896595  0.9990287792219026  1.0000
  Ni  Ni4       1.0  0.006690830404700883  0.008354071255874446  0.9992373733538311  1.0000
  Re  Re13      1.0  0.0017037066580696525  0.0008117844079692224  0.9995557771354304  1.0000
  Re  Re14      1.0  0.001608692418922659  0.005905168116895501  0.9997431024330442  1.0000
  Re  Re15      1.0  0.0016892082723220818  0.003355693388253248  0.9994458995822584  1.0000
  Re  Re16      1.0  0.0017000537850875475  0.008345162731765152  0.9996442594040228  1.0000
  Re  Re17      1.0  0.006763286898429076  0.0008118574278470854  0.9995557882718373  1.0000
  Re  Re18      1.0  0.006668752462260501  0.005905549503430454  0.9997430354643172  1.0000
  Re  Re19      1.0  0.00839130667908724  0.004170082749424608  0.999623107030512  1.0000
  Re  Re20      1.0  0.008359117798518919  0.009188216281140405  0.9994111674248507  1.0000
  Re  Re21      1.0  0.008257005816970059  0.001788901463000966  0.9997041104711445  1.0000
  Re  Re22      1.0  0.008327707550634994  0.006716143217092991  0.9995169815316313  1.0000
  Re  Re23      1.0  0.0033580394295312684  0.004169613045966191  0.9996231096067189  1.0000
  Re  Re24      1.0  0.003354251588428152  0.009188216281140405  0.9994111674248507  1.0000
  Ni  Ni5       1.0  0.0032496529039206393  0.0017950347367014451  0.9997110804041001  1.0000
  Ni  Ni6       1.0  0.0033633760261799085  0.00668111268563948  0.9995123625524568  1.0000
  Ni  Ni7       1.0  0.006690830056185669  0.0033540716043896595  0.9994459672411031  1.0000
  Ni  Ni8       1.0  0.006658284698191444  0.008387164359571993  0.9996500977322201  1.0000
