data_image0
_chemical_formula_structural       HSn4Ir4Sn4Ir4
_chemical_formula_sum              "H1 Sn8 Ir8"
_cell_length_a       5.6937150955200195
_cell_length_b       7.008148670196533
_cell_length_c       98.3230972290039
_cell_angle_alpha    90.0
_cell_angle_beta     90.0
_cell_angle_gamma    90.0

_space_group_name_H-M_alt    "P 1"
_space_group_IT_number       1

loop_
  _space_group_symop_operation_xyz
  'x, y, z'

loop_
  _atom_site_type_symbol
  _atom_site_label
  _atom_site_symmetry_multiplicity
  _atom_site_fract_x
  _atom_site_fract_y
  _atom_site_fract_z
  _atom_site_occupancy
  H   H1        1.0  0.005000000955250437  0.0007964509536940589  0.0001253064523075049  1.0000
  Sn  Sn1       1.0  0.0025000003140549384  0.007463117389129717  0.9995869613709083  1.0000
  Sn  Sn2       1.0  0.0025000003140549384  0.0024631173466044746  0.9993812030040182  1.0000
  Sn  Sn3       1.0  0.007500000287883693  0.004129783938851966  0.9995869613709083  1.0000
  Sn  Sn4       1.0  0.007500000287883693  0.00912978371559444  0.9993812030040182  1.0000
  Ir  Ir1       1.0  0.0050000003009693155  0.005796450531099458  0.9993812030040182  1.0000
  Ir  Ir2       1.0  0.0050000003009693155  0.0007964505550199075  0.9995869613709083  1.0000
  Ir  Ir3       1.0  3.0000000176422684e-10  0.005796450531099458  0.9993812030040182  1.0000
  Ir  Ir4       1.0  3.0000000176422684e-10  0.0007964505550199075  0.9995869613709083  1.0000
  Sn  Sn5       1.0  0.002499998514781854  0.007622421201235368  0.9999875283998214  1.0000
  Sn  Sn6       1.0  0.0025000053847336304  0.002389348276329436  0.9998000776363628  1.0000
  Sn  Sn7       1.0  0.007500006830694909  0.0039704891633604135  0.9999875283998214  1.0000
  Sn  Sn8       1.0  0.007500002250727058  0.009203549064910733  0.9998000776363628  1.0000
  Ir  Ir5       1.0  0.005000003572374924  0.005796449999533923  0.9997961993948743  1.0000
  Ir  Ir6       1.0  0.005000000955250437  0.0007964509536940589  0.0  1.0000
  Ir  Ir7       1.0  0.009999999293376388  0.005796449999533923  0.9997961987886622  1.0000
  Ir  Ir8       1.0  2.4000000141138147e-09  0.0007964510201397508  0.0  1.0000
