data_image0
_chemical_formula_structural       CONi4As4Ni4As4Ni4As4Ni4As4
_chemical_formula_sum              "C1 O1 Ni16 As16"
_cell_length_a       6.277102670268215
_cell_length_b       7.359626898873691
_cell_length_c       107.66261291503906
_cell_angle_alpha    72.95551945995054
_cell_angle_beta     108.22041538288792
_cell_angle_gamma    72.95552170320047

_space_group_name_H-M_alt    "P 1"
_space_group_IT_number       1

loop_
  _space_group_symop_operation_xyz
  'x, y, z'

loop_
  _atom_site_type_symbol
  _atom_site_label
  _atom_site_symmetry_multiplicity
  _atom_site_fract_x
  _atom_site_fract_y
  _atom_site_fract_z
  _atom_site_occupancy
  C   C1        1.0  0.0049433043449153835  0.0015065350763884735  7.45523867124186e-05  1.0000
  O   O1        1.0  0.0049433043449153835  0.0015065350763884735  0.00018601136387397005  1.0000
  Ni  Ni1       1.0  0.001458333282750302  0.0024558970160559125  0.9994703729075244  1.0000
  Ni  Ni2       1.0  0.006525078618170761  0.0024023177726374134  0.9997715510529613  1.0000
  Ni  Ni3       1.0  0.003544866084790375  0.0026579036814843404  0.9998875709767251  1.0000
  Ni  Ni4       1.0  0.00895833326895493  0.002455896989242638  0.9996161314992719  1.0000
  As  As1       1.0  0.00105229167840193  0.0007817854977960772  0.9998883588101309  1.0000
  As  As2       1.0  0.006041666703454326  0.0007892303074333439  0.9995918384212967  1.0000
  As  As3       1.0  0.0018749999103300807  0.0041225636861666245  0.9996404248219221  1.0000
  As  As4       1.0  0.006468049929005704  0.004218214936824339  0.9999332089400663  1.0000
  Ni  Ni5       1.0  0.001458333282750302  0.0024558970160559125  0.998887338364518  1.0000
  Ni  Ni6       1.0  0.006458333158591952  0.0024558973041697105  0.9991788555061876  1.0000
  Ni  Ni7       1.0  0.003958333048228974  0.002455897089663513  0.9993246140667179  1.0000
  Ni  Ni8       1.0  0.00895833326895493  0.002455896989242638  0.9990330969562654  1.0000
  As  As5       1.0  0.001041666568949447  0.0007892303768997096  0.9993003209909348  1.0000
  As  As6       1.0  0.006041666703454326  0.0007892303074333439  0.9990088038782903  1.0000
  As  As7       1.0  0.0018749999103300807  0.0041225636861666245  0.9990573900021035  1.0000
  As  As8       1.0  0.006874999613729578  0.004122563771472807  0.999348907144693  1.0000
  Ni  Ni9       1.0  0.001458333282750302  0.007455896857225932  0.9994703729771418  1.0000
  Ni  Ni10      1.0  0.006525078618170761  0.007402317878524068  0.9997715511172747  1.0000
  Ni  Ni11      1.0  0.003544866084790375  0.0076579037873709946  0.9998875710410383  1.0000
  Ni  Ni12      1.0  0.00895833326895493  0.007455897095129292  0.9996161315635851  1.0000
  As  As9       1.0  0.00105229167840193  0.005781785603682732  0.9998883588744442  1.0000
  As  As10      1.0  0.006041666703454326  0.005789230413319998  0.99959183848561  1.0000
  As  As11      1.0  0.0018749999103300807  0.00912256326262001  0.9996404248968435  1.0000
  As  As12      1.0  0.006468049929005704  0.009218214513277725  0.9999332090149877  1.0000
  Ni  Ni13      1.0  0.001458333282750302  0.007455896857225932  0.9988873384341354  1.0000
  Ni  Ni14      1.0  0.006458333158591952  0.0074558968806230945  0.9991788558579212  1.0000
  Ni  Ni15      1.0  0.003958333048228974  0.007455897195550167  0.9993246141310311  1.0000
  Ni  Ni16      1.0  0.00895833326895493  0.007455897095129292  0.9990330970205787  1.0000
  As  As13      1.0  0.001041666568949447  0.005789230482786364  0.9993003210552481  1.0000
  As  As14      1.0  0.006041666703454326  0.005789230413319998  0.9990088039426036  1.0000
  As  As15      1.0  0.0018749999103300807  0.00912256326262001  0.999057390353837  1.0000
  As  As16      1.0  0.006874999613729578  0.009122563877359461  0.9993489072090063  1.0000
