data_image0
_chemical_formula_structural       COPd2Au6Pd2Au6Pd2Au6Pd2Au6
_chemical_formula_sum              "C1 O1 Pd8 Au24"
_cell_length_a       5.854583740234375
_cell_length_b       8.279631614685059
_cell_length_c       105.12750244140625
_cell_angle_alpha    90.0
_cell_angle_beta     90.0
_cell_angle_gamma    90.0

_space_group_name_H-M_alt    "P 1"
_space_group_IT_number       1

loop_
  _space_group_symop_operation_xyz
  'x, y, z'

loop_
  _atom_site_type_symbol
  _atom_site_label
  _atom_site_symmetry_multiplicity
  _atom_site_fract_x
  _atom_site_fract_y
  _atom_site_fract_z
  _atom_site_occupancy
  C   C1        1.0  0.0006250000174983378  0.0025000001259816054  9.514460832909025e-05  1.0000
  O   O1        1.0  0.0006250000174983378  0.0025000001259816054  0.00020929137711339177  1.0000
  Pd  Pd1       1.0  0.006875000152712766  0.0012500000629908027  0.9998607742348434  1.0000
  Pd  Pd2       1.0  0.0018750000127260638  0.0012500000629908027  0.9995823227045304  1.0000
  Au  Au1       1.0  0.004374999923643617  0.003749999964005256  0.0  1.0000
  Au  Au2       1.0  0.009374999745478726  0.003749999964005256  0.999721548469687  1.0000
  Au  Au3       1.0  0.009374999745478726  0.003749999964005256  0.0  1.0000
  Au  Au4       1.0  0.004374999923643617  0.003749999964005256  0.999721548469687  1.0000
  Au  Au5       1.0  0.006875000152712766  0.0012500000629908027  0.9995823227045304  1.0000
  Au  Au6       1.0  0.0018750000127260638  0.0012500000629908027  0.9998607742348434  1.0000
  Pd  Pd3       1.0  0.006875000152712766  0.0012500000629908027  0.9993038711742174  1.0000
  Pd  Pd4       1.0  0.0018750000127260638  0.0012500000629908027  0.9990254196439042  1.0000
  Au  Au7       1.0  0.004374999923643617  0.003749999964005256  0.9994430969393738  1.0000
  Au  Au8       1.0  0.009374999745478726  0.003749999964005256  0.9991646454090608  1.0000
  Au  Au9       1.0  0.009374999745478726  0.003749999964005256  0.9994430969393738  1.0000
  Au  Au10      1.0  0.004374999923643617  0.003749999964005256  0.9991646454090608  1.0000
  Au  Au11      1.0  0.006875000152712766  0.0012500000629908027  0.9990254196439042  1.0000
  Au  Au12      1.0  0.0018750000127260638  0.0012500000629908027  0.9993038711742174  1.0000
  Pd  Pd5       1.0  0.006875000152712766  0.006250000089986861  0.9998607742348434  1.0000
  Pd  Pd6       1.0  0.0018750000127260638  0.006250000089986861  0.9995823227045304  1.0000
  Au  Au13      1.0  0.004374999923643617  0.008750000215968466  0.0  1.0000
  Au  Au14      1.0  0.009374999745478726  0.008750000215968466  0.999721548469687  1.0000
  Au  Au15      1.0  0.009374999745478726  0.008750000215968466  0.0  1.0000
  Au  Au16      1.0  0.004374999923643617  0.008750000215968466  0.999721548469687  1.0000
  Au  Au17      1.0  0.006875000152712766  0.006250000089986861  0.9995823227045304  1.0000
  Au  Au18      1.0  0.0018750000127260638  0.006250000089986861  0.9998607742348434  1.0000
  Pd  Pd7       1.0  0.006875000152712766  0.006250000089986861  0.9993038711742174  1.0000
  Pd  Pd8       1.0  0.0018750000127260638  0.006250000089986861  0.9990254196439042  1.0000
  Au  Au19      1.0  0.004374999923643617  0.008750000215968466  0.9994430969393738  1.0000
  Au  Au20      1.0  0.009374999745478726  0.008750000215968466  0.9991646454090608  1.0000
  Au  Au21      1.0  0.009374999745478726  0.008750000215968466  0.9994430969393738  1.0000
  Au  Au22      1.0  0.004374999923643617  0.008750000215968466  0.9991646454090608  1.0000
  Au  Au23      1.0  0.006875000152712766  0.006250000089986861  0.9990254196439042  1.0000
  Au  Au24      1.0  0.0018750000127260638  0.006250000089986861  0.9993038711742174  1.0000
