data_image0
_chemical_formula_structural       COFe3Cu3Pt6Fe3Cu3Pt6Fe3Cu3Pt6Fe3Cu3Pt6
_chemical_formula_sum              "C1 O1 Fe12 Cu12 Pt24"
_cell_length_a       7.866217136383057
_cell_length_b       8.634165562980305
_cell_length_c       107.1335220336914
_cell_angle_alpha    113.50486615869167
_cell_angle_beta     90.0
_cell_angle_gamma    90.0

_space_group_name_H-M_alt    "P 1"
_space_group_IT_number       1

loop_
  _space_group_symop_operation_xyz
  'x, y, z'

loop_
  _atom_site_type_symbol
  _atom_site_label
  _atom_site_symmetry_multiplicity
  _atom_site_fract_x
  _atom_site_fract_y
  _atom_site_fract_z
  _atom_site_occupancy
  C   C1        1.0  0.0  0.006560969036367812  0.00019775358292571  1.0000
  O   O1        1.0  0.0  0.006560969036367812  0.0003097635690710483  1.0000
  Fe  Fe1       1.0  0.0025000000189432364  0.005790032263682811  0.9992919695138296  1.0000
  Fe  Fe2       1.0  0.0025000000189432364  0.009123365496643186  0.9991269171959919  1.0000
  Fe  Fe3       1.0  0.0025000000189432364  0.002456698795473316  0.9994570218241059  1.0000
  Cu  Cu1       1.0  0.0  0.007456698880162999  0.9992094433549107  1.0000
  Cu  Cu2       1.0  0.0  0.0007900321789931283  0.9995395479830248  1.0000
  Cu  Cu3       1.0  0.0  0.0041233656472026235  0.9993744956727485  1.0000
  Pt  Pt1       1.0  0.0  0.007456698880162999  0.9994570217711922  1.0000
  Pt  Pt2       1.0  0.0  0.0007900321789931283  0.9992919695667434  1.0000
  Pt  Pt3       1.0  0.0  0.0041233656472026235  0.9991269172564671  1.0000
  Pt  Pt4       1.0  0.0025000000189432364  0.009123365496643186  0.9993744956122733  1.0000
  Pt  Pt5       1.0  0.0025000000189432364  0.002456698795473316  0.9992094434078245  1.0000
  Pt  Pt6       1.0  0.0025000000189432364  0.005790032263682811  0.9995395479301111  1.0000
  Fe  Fe4       1.0  0.0025000000189432364  0.00584792613108379  0.9997922363329271  1.0000
  Fe  Fe5       1.0  0.0025000000189432364  0.009123365496643186  0.9996220740285549  1.0000
  Fe  Fe6       1.0  0.0025000000189432364  0.0025318394815985654  0.9999446339355478  1.0000
  Cu  Cu4       1.0  0.0  0.007456698880162999  0.9997046001874738  1.0000
  Cu  Cu5       1.0  9.999999981869357e-11  0.0009366193755021909  3.010527707392897e-05  1.0000
  Cu  Cu6       1.0  0.010000000075772945  0.004101689793298756  0.999876148392023  1.0000
  Pt  Pt7       1.0  0.0  0.007445521253481988  0.9999522110034018  1.0000
  Pt  Pt8       1.0  0.0  0.0008047715361610945  0.999787162861143  1.0000
  Pt  Pt9       1.0  0.0  0.0041233656472026235  0.99962207408903  1.0000
  Pt  Pt10      1.0  0.0025000000189432364  0.009209968225635358  0.9998816860883072  1.0000
  Pt  Pt11      1.0  0.0025000000189432364  0.002456698795473316  0.9997046002403874  1.0000
  Pt  Pt12      1.0  0.0025000000189432364  0.005688514269993299  2.1453417766986592e-05  1.0000
  Fe  Fe7       1.0  0.007500000056829709  0.005790032263682811  0.9992919695138296  1.0000
  Fe  Fe8       1.0  0.007500000056829709  0.009123365496643186  0.9991269171959919  1.0000
  Fe  Fe9       1.0  0.007500000056829709  0.002456698795473316  0.9994570218241059  1.0000
  Cu  Cu7       1.0  0.005000000037886473  0.007456698880162999  0.9992094433549107  1.0000
  Cu  Cu8       1.0  0.005000000037886473  0.0007900321789931283  0.9995395479830248  1.0000
  Cu  Cu9       1.0  0.005000000037886473  0.0041233656472026235  0.9993744956727485  1.0000
  Pt  Pt13      1.0  0.005000000037886473  0.007456698880162999  0.9994570217711922  1.0000
  Pt  Pt14      1.0  0.005000000037886473  0.0007900321789931283  0.9992919695667434  1.0000
  Pt  Pt15      1.0  0.005000000037886473  0.0041233656472026235  0.9991269172564671  1.0000
  Pt  Pt16      1.0  0.007500000056829709  0.009123365496643186  0.9993744956122733  1.0000
  Pt  Pt17      1.0  0.007500000056829709  0.002456698795473316  0.9992094434078245  1.0000
  Pt  Pt18      1.0  0.007500000056829709  0.005790032263682811  0.9995395479301111  1.0000
  Fe  Fe10      1.0  0.007500000056829709  0.00584792613108379  0.9997922363329271  1.0000
  Fe  Fe11      1.0  0.007500000056829709  0.009123365496643186  0.9996220740285549  1.0000
  Fe  Fe12      1.0  0.007500000056829709  0.0025318394815985654  0.9999446339355478  1.0000
  Cu  Cu10      1.0  0.005000000037886473  0.007456698880162999  0.9997046001874738  1.0000
  Cu  Cu11      1.0  0.005000000037886473  0.0009366193755021909  3.010527707392897e-05  1.0000
  Cu  Cu12      1.0  0.005000000037886473  0.004101689793298756  0.999876148392023  1.0000
  Pt  Pt19      1.0  0.005000000037886473  0.007445521253481988  0.9999522110034018  1.0000
  Pt  Pt20      1.0  0.005000000037886473  0.0008047715361610945  0.999787162861143  1.0000
  Pt  Pt21      1.0  0.005000000037886473  0.0041233656472026235  0.99962207408903  1.0000
  Pt  Pt22      1.0  0.007500000056829709  0.009209968225635358  0.9998816860883072  1.0000
  Pt  Pt23      1.0  0.007500000056829709  0.002456698795473316  0.9997046002403874  1.0000
  Pt  Pt24      1.0  0.007500000056829709  0.005688514269993299  2.1453417766986592e-05  1.0000
