data_image0
_chemical_formula_structural       COMo4Pt8
_chemical_formula_sum              "C1 O1 Mo4 Pt8"
_cell_length_a       4.84737320884209
_cell_length_b       4.8473729517204145
_cell_length_c       102.05571746826172
_cell_angle_alpha    91.77311211142943
_cell_angle_beta     91.7731120173473
_cell_angle_gamma    119.72924954822467

_space_group_name_H-M_alt    "P 1"
_space_group_IT_number       1

loop_
  _space_group_symop_operation_xyz
  'x, y, z'

loop_
  _atom_site_type_symbol
  _atom_site_label
  _atom_site_symmetry_multiplicity
  _atom_site_fract_x
  _atom_site_fract_y
  _atom_site_fract_z
  _atom_site_occupancy
  C   C1        1.0  0.007334336519952981  0.00566764577551348  0.00017521645091263442  1.0000
  O   O1        1.0  0.007334336519952981  0.00566764577551348  0.00029279951844069283  1.0000
  Mo  Mo1       1.0  0.007955449887923589  0.0079554499270853  0.999336290753226  1.0000
  Mo  Mo2       1.0  0.0015268788458486656  0.001526878729575518  0.9995606480355729  1.0000
  Mo  Mo3       1.0  0.005356519201115382  0.005356521522882057  0.9997979534609861  1.0000
  Mo  Mo4       1.0  0.008679029556362582  0.008679030295476113  0.9999989393281425  1.0000
  Pt  Pt1       1.0  0.008161358912940305  0.004892398440544316  0.9995606480191856  1.0000
  Pt  Pt2       1.0  0.004589930512323337  0.001320969726680484  0.9993362907699104  1.0000
  Pt  Pt3       1.0  0.0013209698278729208  0.004589930326899483  0.9993362907697866  1.0000
  Pt  Pt4       1.0  0.004892398379696889  0.008161359151546296  0.9995606480194469  1.0000
  Pt  Pt5       1.0  0.005550162418559747  0.0022167802963269255  1.1414672047903131e-05  1.0000
  Pt  Pt6       1.0  0.001852895370639143  0.008598316474467944  0.999783889858447  1.0000
  Pt  Pt7       1.0  0.008598318403794282  0.0018528965353606514  0.9997838898629942  1.0000
  Pt  Pt8       1.0  0.0022167809666931316  0.0055501635263148046  1.141467466111554e-05  1.0000
