data_image0
_chemical_formula_structural       COAg12Sn4
_chemical_formula_sum              "C1 O1 Ag12 Sn4"
_cell_length_a       7.921717208102126
_cell_length_b       5.2833123207092285
_cell_length_c       101.6868667602539
_cell_angle_alpha    90.0
_cell_angle_beta     102.57658243820404
_cell_angle_gamma    90.0

_space_group_name_H-M_alt    "P 1"
_space_group_IT_number       1

loop_
  _space_group_symop_operation_xyz
  'x, y, z'

loop_
  _atom_site_type_symbol
  _atom_site_label
  _atom_site_symmetry_multiplicity
  _atom_site_fract_x
  _atom_site_fract_y
  _atom_site_fract_z
  _atom_site_occupancy
  C   C1        1.0  0.009620135251139587  0.006744216463104526  0.0002446162117363682  1.0000
  O   O1        1.0  0.009620135251139587  0.006744216463104526  0.00036262520440542633  1.0000
  Ag  Ag1       1.0  0.009132341516620781  0.006744216463104526  7.009662429083273e-05  1.0000
  Ag  Ag2       1.0  0.004132341786442186  0.006744216463104526  0.9996805816259334  1.0000
  Ag  Ag3       1.0  0.004132341786442186  0.0032557838753459077  7.009670506843463e-05  1.0000
  Ag  Ag4       1.0  0.009132341516620781  0.0032557838753459077  0.9996805815451558  1.0000
  Ag  Ag5       1.0  0.0028848186698403008  0.008353513017345179  0.9993882520814197  1.0000
  Ag  Ag6       1.0  0.007884818400018897  0.008353513017345179  0.9997777673728565  1.0000
  Ag  Ag7       1.0  0.0003798649018395128  0.001646486792276453  0.9999729112466273  1.0000
  Ag  Ag8       1.0  0.0053798649030440725  0.001646486792276453  0.9995833957982327  1.0000
  Ag  Ag9       1.0  0.0053798649030440725  0.008353513017345179  0.9999729111704472  1.0000
  Ag  Ag10      1.0  0.0003798649018395128  0.008353513017345179  0.999583395874413  1.0000
  Ag  Ag11      1.0  0.0028848186698403008  0.001646486792276453  0.9997777674536341  1.0000
  Ag  Ag12      1.0  0.007884818400018897  0.001646486792276453  0.9993882522937215  1.0000
  Sn  Sn1       1.0  0.0016323418008969046  0.003306200297989812  0.9994858239781718  1.0000
  Sn  Sn2       1.0  0.006632341651531484  0.003306200297989812  0.9998753392716518  1.0000
  Sn  Sn3       1.0  0.0016323418008969046  0.006693799335355553  0.9998753390573067  1.0000
  Sn  Sn4       1.0  0.006632341651531484  0.006693799335355553  0.9994858238994374  1.0000
