data_image0
_chemical_formula_structural       COTc20
_chemical_formula_sum              "C1 O1 Tc20"
_cell_length_a       4.770316268518053
_cell_length_b       5.20005514358167
_cell_length_c       108.9820785522461
_cell_angle_alpha    103.83230808843632
_cell_angle_beta     111.53786643176477
_cell_angle_gamma    90.00000046170797

_space_group_name_H-M_alt    "P 1"
_space_group_IT_number       1

loop_
  _space_group_symop_operation_xyz
  'x, y, z'

loop_
  _atom_site_type_symbol
  _atom_site_label
  _atom_site_symmetry_multiplicity
  _atom_site_fract_x
  _atom_site_fract_y
  _atom_site_fract_z
  _atom_site_occupancy
  C   C1        1.0  0.004712232739011412  0.007022925285306451  0.00027889422009554066  1.0000
  O   O1        1.0  0.004712232739011412  0.007022925285306451  0.00038900429028421163  1.0000
  Tc  Tc1       1.0  0.0041666666415641285  0.007500000177911783  0.9991208964045645  1.0000
  Tc  Tc2       1.0  0.0001666667782707244  0.009500000670134382  0.9992401274819259  1.0000
  Tc  Tc3       1.0  0.0021666667849547564  0.0035000003054152266  0.9994785893325727  1.0000
  Tc  Tc4       1.0  0.0081666667967193  0.005500000426988279  0.9990016656138102  1.0000
  Tc  Tc5       1.0  0.0061666666789882115  0.0015000000911797886  0.9993593582588763  1.0000
  Tc  Tc6       1.0  0.003833333286623423  0.008500000053373535  0.9994785892395387  1.0000
  Tc  Tc7       1.0  0.009833333038932713  0.0005000000303932629  0.9990016657118497  1.0000
  Tc  Tc8       1.0  0.001833333325069902  0.004500000180876979  0.999240127310342  1.0000
  Tc  Tc9       1.0  0.007833333022001997  0.006500000302450031  0.9993593581685781  1.0000
  Tc  Tc10      1.0  0.005833333334294189  0.0025000000593039277  0.9991208965130145  1.0000
  Tc  Tc11      1.0  0.0041666666415641285  0.007500000177911783  0.9997170507131614  1.0000
  Tc  Tc12      1.0  0.0001666667782707244  0.009500000670134382  0.999836281790523  1.0000
  Tc  Tc13      1.0  0.0021666667849547564  0.0035000003054152266  7.47436411697308e-05  1.0000
  Tc  Tc14      1.0  0.0081666667967193  0.005500000426988279  0.9995978201958681  1.0000
  Tc  Tc15      1.0  0.0061666666789882115  0.0015000000911797886  0.9999555125674734  1.0000
  Tc  Tc16      1.0  0.003833333286623423  0.008500000053373535  7.47435481356781e-05  1.0000
  Tc  Tc17      1.0  0.009833333038932713  0.0005000000303932629  0.9995978200204467  1.0000
  Tc  Tc18      1.0  0.001833333325069902  0.004500000180876979  0.999836281618939  1.0000
  Tc  Tc19      1.0  0.007833333022001997  0.006500000302450031  0.9999555124771752  1.0000
  Tc  Tc20      1.0  0.005833333334294189  0.0025000000593039277  0.9997170510950724  1.0000
