data_image0
_chemical_formula_structural       COOs18
_chemical_formula_sum              "C1 O1 Os18"
_cell_length_a       7.321771103780645
_cell_length_b       5.151223763052468
_cell_length_c       100.4410629272461
_cell_angle_alpha    105.58173699863075
_cell_angle_beta     79.1066056951693
_cell_angle_gamma    66.03964709631384

_space_group_name_H-M_alt    "P 1"
_space_group_IT_number       1

loop_
  _space_group_symop_operation_xyz
  'x, y, z'

loop_
  _atom_site_type_symbol
  _atom_site_label
  _atom_site_symmetry_multiplicity
  _atom_site_fract_x
  _atom_site_fract_y
  _atom_site_fract_z
  _atom_site_occupancy
  C   C1        1.0  0.002450190792985989  0.0019327600797671579  0.0001534590728250898  1.0000
  O   O1        1.0  0.002450190792985989  0.0019327600797671579  0.0002729317701893381  1.0000
  Os  Os1       1.0  0.00027777776575419047  0.0029946138795518716  0.9993613164370149  1.0000
  Os  Os2       1.0  0.0036111112027140888  0.0029946138795518716  0.9994531571456584  1.0000
  Os  Os3       1.0  0.006944444121541163  0.0029946138795518716  0.9992694758736496  1.0000
  Os  Os4       1.0  0.006388888493552786  0.007994613682344076  0.9994837706721991  1.0000
  Os  Os5       1.0  0.009722221412379859  0.007994613682344076  0.9993000894001902  1.0000
  Os  Os6       1.0  0.003055555574725712  0.007994613682344076  0.9993919299564178  1.0000
  Os  Os7       1.0  0.00027777776575419047  0.0029946138795518716  0.9996368381280906  1.0000
  Os  Os8       1.0  0.0036111112027140888  0.0029946138795518716  0.9997286788367341  1.0000
  Os  Os9       1.0  0.006944444121541163  0.0029946138795518716  0.9995449975647251  1.0000
  Os  Os10      1.0  0.006357209581987992  0.008023370866058166  0.9997580509015319  1.0000
  Os  Os11      1.0  0.009722221412379859  0.007994613682344076  0.9995756110912659  1.0000
  Os  Os12      1.0  0.003055555574725712  0.007994613682344076  0.9996674516474935  1.0000
  Os  Os13      1.0  0.0004032906206913444  0.0029124165985939653  0.9999105345137734  1.0000
  Os  Os14      1.0  0.003628329780904997  0.0028834806417261023  0.9999897388948369  1.0000
  Os  Os15      1.0  0.0069324548686989975  0.003012332999980135  0.9998209030034314  1.0000
  Os  Os16      1.0  0.006501262848190836  0.007838630890332765  9.731740694060784e-06  1.0000
  Os  Os17      1.0  0.0096769411578034  0.00806724016888615  0.9998540145518083  1.0000
  Os  Os18      1.0  0.0031352894089803646  0.007913503830893473  0.9999366510132183  1.0000
