data_image0
_chemical_formula_structural       HSc12
_chemical_formula_sum              "H1 Sc12"
_cell_length_a       5.81784725189209
_cell_length_b       6.224899357514114
_cell_length_c       103.58935546875
_cell_angle_alpha    105.65226997706498
_cell_angle_beta     90.0
_cell_angle_gamma    117.85946907753994

_space_group_name_H-M_alt    "P 1"
_space_group_IT_number       1

loop_
  _space_group_symop_operation_xyz
  'x, y, z'

loop_
  _atom_site_type_symbol
  _atom_site_label
  _atom_site_symmetry_multiplicity
  _atom_site_fract_x
  _atom_site_fract_y
  _atom_site_fract_z
  _atom_site_occupancy
  H   H1        1.0  0.007999474996188048  0.0018322838379662997  0.0002463627282070034  1.0000
  Sc  Sc1       1.0  0.002833858130862195  0.0031677160696280625  0.9998892298888502  1.0000
  Sc  Sc2       1.0  0.007833858034814031  0.0031677160696280625  5.135737263535331e-05  1.0000
  Sc  Sc3       1.0  0.002000524566426305  0.008167715799519276  0.9999702936091017  1.0000
  Sc  Sc4       1.0  0.007000524630458414  0.008167715799519276  0.00013242109288690967  1.0000
  Sc  Sc5       1.0  0.002833858130862195  0.0031677160696280625  0.9995649749212799  1.0000
  Sc  Sc6       1.0  0.007833858034814031  0.0031677160696280625  0.9997271024050651  1.0000
  Sc  Sc7       1.0  0.002000524566426305  0.008167715799519276  0.9996460386415315  1.0000
  Sc  Sc8       1.0  0.007000524630458414  0.008167715799519276  0.9998081661253166  1.0000
  Sc  Sc9       1.0  0.002833858130862195  0.0031677160696280625  0.9992407199537097  1.0000
  Sc  Sc10      1.0  0.007833858034814031  0.0031677160696280625  0.9994028474374949  1.0000
  Sc  Sc11      1.0  0.002000524566426305  0.008167715799519276  0.9993217836739612  1.0000
  Sc  Sc12      1.0  0.007000524630458414  0.008167715799519276  0.9994839111577464  1.0000
