data_image0
_chemical_formula_structural       CONa18Sn6Na18Sn6
_chemical_formula_sum              "C1 O1 Na36 Sn12"
_cell_length_a       9.66623592376709
_cell_length_b       11.114435903657713
_cell_length_c       105.14693450927734
_cell_angle_alpha    71.56505234307264
_cell_angle_beta     90.0
_cell_angle_gamma    90.0

_space_group_name_H-M_alt    "P 1"
_space_group_IT_number       1

loop_
  _space_group_symop_operation_xyz
  'x, y, z'

loop_
  _atom_site_type_symbol
  _atom_site_label
  _atom_site_symmetry_multiplicity
  _atom_site_fract_x
  _atom_site_fract_y
  _atom_site_fract_z
  _atom_site_occupancy
  C   C1        1.0  0.009999999815011824  0.002133751986090425  0.9998880281776267  1.0000
  O   O1        1.0  0.009999999815011824  0.002133751986090425  2.1538510954601095e-06  1.0000
  Na  Na1       1.0  0.0075000002466509  0.009137883533541016  0.9986823591522882  1.0000
  Na  Na2       1.0  0.0075000002466509  0.005804550864423613  0.9991280458759718  1.0000
  Na  Na3       1.0  0.0075000002466509  0.0024712174886935183  0.9989052024024094  1.0000
  Na  Na4       1.0  0.0075000002466509  0.005804550864423613  0.998793780765539  1.0000
  Na  Na5       1.0  0.0075000002466509  0.0024712174886935183  0.9985709375754116  1.0000
  Na  Na6       1.0  0.0075000002466509  0.009137883533541016  0.999016624262721  1.0000
  Na  Na7       1.0  0.004999999907505912  0.007471217375635488  0.9989052025082251  1.0000
  Na  Na8       1.0  0.004999999907505912  0.004137883999905393  0.9986823593180977  1.0000
  Na  Na9       1.0  0.004999999907505912  0.0008045508891550576  0.9991280457731085  1.0000
  Na  Na10      1.0  0.002500000146448972  0.005804550864423613  0.998793780765539  1.0000
  Na  Na11      1.0  0.002500000146448972  0.0024712174886935183  0.9985709375754116  1.0000
  Na  Na12      1.0  0.002500000146448972  0.009137883533541016  0.999016624262721  1.0000
  Na  Na13      1.0  0.002500000146448972  0.009137883533541016  0.9986823591522882  1.0000
  Na  Na14      1.0  0.002500000146448972  0.005804550864423613  0.9991280458759718  1.0000
  Na  Na15      1.0  0.002500000146448972  0.0024712174886935183  0.9989052024024094  1.0000
  Na  Na16      1.0  9.999999654432791e-11  0.007471217375635488  0.9985709376812273  1.0000
  Na  Na17      1.0  9.999999654432791e-11  0.004137883999905393  0.9990166241450955  1.0000
  Na  Na18      1.0  9.999999654432791e-11  0.0008045508891550576  0.9987937809461107  1.0000
  Sn  Sn1       1.0  9.999999654432791e-11  0.007471217375635488  0.9989052025082251  1.0000
  Sn  Sn2       1.0  9.999999654432791e-11  0.004137883999905393  0.9986823593180977  1.0000
  Sn  Sn3       1.0  9.999999654432791e-11  0.0008045508891550576  0.9991280457731085  1.0000
  Sn  Sn4       1.0  0.004999999907505912  0.007471217375635488  0.9985709376812273  1.0000
  Sn  Sn5       1.0  0.004999999907505912  0.004137883999905393  0.9990166241450955  1.0000
  Sn  Sn6       1.0  0.004999999907505912  0.0008045508891550576  0.9987937809461107  1.0000
  Na  Na19      1.0  0.0075000002466509  0.009137883533541016  0.9993508888062839  1.0000
  Na  Na20      1.0  0.007414013118177451  0.0055842735437017675  0.9997951986258111  1.0000
  Na  Na21      1.0  0.007394050581736014  0.002559916283411248  0.9995716106695623  1.0000
  Na  Na22      1.0  0.0075000002466509  0.005804550864423613  0.9994623104195346  1.0000
  Na  Na23      1.0  0.0075000002466509  0.0024712174886935183  0.9992394675128422  1.0000
  Na  Na24      1.0  0.007725753649224731  0.009195448443095947  0.9996926284287234  1.0000
  Na  Na25      1.0  0.004999999907505912  0.00760930150804037  0.9995608827072342  1.0000
  Na  Na26      1.0  0.004999999907505912  0.004137883999905393  0.9993508892555283  1.0000
  Na  Na27      1.0  0.005000000292897944  0.0013825957550361247  0.9997930447139302  1.0000
  Na  Na28      1.0  0.002500000146448972  0.005804550864423613  0.9994623104195346  1.0000
  Na  Na29      1.0  0.002500000146448972  0.0024712174886935183  0.9992394675128422  1.0000
  Na  Na30      1.0  0.002274246165787093  0.009195448443095947  0.9996926284287234  1.0000
  Na  Na31      1.0  0.002500000146448972  0.009137883533541016  0.9993508888062839  1.0000
  Na  Na32      1.0  0.0025859874676184363  0.0055842728370890755  0.9997951986494307  1.0000
  Na  Na33      1.0  0.0026059494259718266  0.002559916283411248  0.9995716106695623  1.0000
  Na  Na34      1.0  9.999999654432791e-11  0.007471217375635488  0.9992394676186579  1.0000
  Na  Na35      1.0  0.009999999815011824  0.004126679242450595  0.9996803409072663  1.0000
  Na  Na36      1.0  9.999999654432791e-11  0.0008045508891550576  0.9994623108835413  1.0000
  Sn  Sn7       1.0  0.009999999815011824  0.007351512945958532  0.9995879773693339  1.0000
  Sn  Sn8       1.0  9.999999654432791e-11  0.004137883999905393  0.9993508892555283  1.0000
  Sn  Sn9       1.0  0.009999999815011824  0.0011797445632145437  0.9997484408176411  1.0000
  Sn  Sn10      1.0  0.004999999907505912  0.007471217375635488  0.9992394676186579  1.0000
  Sn  Sn11      1.0  0.005000001449074038  0.004457025268876869  0.9996566256527599  1.0000
  Sn  Sn12      1.0  0.004999999907505912  0.0008045508891550576  0.9994623108835413  1.0000
