data_image0
_chemical_formula_structural       COCa6Ga12
_chemical_formula_sum              "C1 O1 Ca6 Ga12"
_cell_length_a       4.569172064373591
_cell_length_b       11.816882723238944
_cell_length_c       105.10138702392578
_cell_angle_alpha    82.03189433744353
_cell_angle_beta     105.09032245231684
_cell_angle_gamma    67.2528710380576

_space_group_name_H-M_alt    "P 1"
_space_group_IT_number       1

loop_
  _space_group_symop_operation_xyz
  'x, y, z'

loop_
  _atom_site_type_symbol
  _atom_site_label
  _atom_site_symmetry_multiplicity
  _atom_site_fract_x
  _atom_site_fract_y
  _atom_site_fract_z
  _atom_site_occupancy
  C   C1        1.0  0.002934466798327757  0.0036809734307699173  7.581739760658677e-06  1.0000
  O   O1        1.0  0.002934466798327757  0.0036809734307699173  0.00012175743865950693  1.0000
  Ca  Ca1       1.0  0.0013953854741228474  0.007499999517343078  0.9995519078125523  1.0000
  Ca  Ca2       1.0  0.0013953843466761753  0.000833333259988409  0.9992735943093396  1.0000
  Ca  Ca3       1.0  0.0014298710537077348  0.004124402411108678  0.9998303795937756  1.0000
  Ca  Ca4       1.0  0.001607285603695621  0.009065880529079206  0.9998491931390856  1.0000
  Ca  Ca5       1.0  0.0013953843668981687  0.0024999999574126246  0.9995519077591349  1.0000
  Ca  Ca6       1.0  0.0013953852457860285  0.005833332997366261  0.9992735943576359  1.0000
  Ga  Ga1       1.0  0.008062051802107253  0.005696789354232749  0.999529106840314  1.0000
  Ga  Ga2       1.0  0.00806205184255124  0.00903012274908118  0.9992507928566785  1.0000
  Ga  Ga3       1.0  0.008210534468040775  0.0021997383766673697  0.9998048036739006  1.0000
  Ga  Ga4       1.0  0.0049552353024455474  0.005894889854510623  0.9998796332237064  1.0000
  Ga  Ga5       1.0  0.00472871804454092  0.009585677900845324  0.9996218778245085  1.0000
  Ga  Ga6       1.0  0.0047287183918517444  0.0029190114660432574  0.9993435643407529  1.0000
  Ga  Ga7       1.0  0.0047287184231137045  0.007636543870266181  0.9992963953132127  1.0000
  Ga  Ga8       1.0  0.004828981287813833  0.0009681086398042008  0.9998696361254786  1.0000
  Ga  Ga9       1.0  0.004728718382669718  0.0043032104754177495  0.9995747090132904  1.0000
  Ga  Ga10      1.0  0.008172585982198404  0.007097399763627574  0.9997809701961802  1.0000
  Ga  Ga11      1.0  0.008062051555951133  0.00041432170699592696  0.99948193802594  1.0000
  Ga  Ga12      1.0  0.008604616811668518  0.0032485692572480082  4.675644678738922e-05  1.0000
