data_image0
_chemical_formula_structural       HAl12Fe18Si18
_chemical_formula_sum              "H1 Al12 Fe18 Si18"
_cell_length_a       4.628602030738356
_cell_length_b       17.4601061374486
_cell_length_c       102.8845443725586
_cell_angle_alpha    70.63631176040249
_cell_angle_beta     80.95497732221101
_cell_angle_gamma    100.42443586544668

_space_group_name_H-M_alt    "P 1"
_space_group_IT_number       1

loop_
  _space_group_symop_operation_xyz
  'x, y, z'

loop_
  _atom_site_type_symbol
  _atom_site_label
  _atom_site_symmetry_multiplicity
  _atom_site_fract_x
  _atom_site_fract_y
  _atom_site_fract_z
  _atom_site_occupancy
  H   H1        1.0  0.006281363751518372  0.002088977458095556  0.9996496226339737  1.0000
  Al  Al1       1.0  0.003944516198475269  0.008747158371485814  0.9989549015208802  1.0000
  Al  Al2       1.0  0.007202195719235069  0.005551132140528293  0.9995180027845764  1.0000
  Al  Al3       1.0  0.0006111830286200442  0.0020804920006858626  0.9992212562384105  1.0000
  Al  Al4       1.0  0.008729223702128251  0.005424466460748415  0.9989453861944376  1.0000
  Al  Al5       1.0  0.0018318153704038316  0.0021232913790593037  0.9994786979842792  1.0000
  Al  Al6       1.0  0.00539589074825586  0.008757800230095857  0.9992117409720748  1.0000
  Al  Al7       1.0  0.008092415156776361  0.007908866748009459  0.9989117451754527  1.0000
  Al  Al8       1.0  0.0015979140639087199  0.004641638167538844  0.9994574229693173  1.0000
  Al  Al9       1.0  0.004759081878233859  0.0012422001436305215  0.9991780999068948  1.0000
  Al  Al10      1.0  0.0028771228356490736  0.004586174837272061  0.9989022303865527  1.0000
  Al  Al11      1.0  0.006251691888779638  0.0010748550483557085  0.9994534066309456  1.0000
  Al  Al12      1.0  0.009543788966192034  0.007919507672303556  0.9991685852637912  1.0000
  Fe  Fe1       1.0  0.006140199084149907  0.007364085806978398  0.9994071186233434  1.0000
  Fe  Fe2       1.0  0.00942956813210132  0.0040149480834264905  0.9991387330940464  1.0000
  Fe  Fe3       1.0  0.0027629013240562596  0.0006816147228422758  0.9988723782511715  1.0000
  Fe  Fe4       1.0  0.0007254042770138419  0.005985051823141915  0.9992511078127467  1.0000
  Fe  Fe5       1.0  0.0040587375501327265  0.002651718520952446  0.9989847530065655  1.0000
  Fe  Fe6       1.0  0.007192803177401918  0.009431903578295526  0.9995113530853346  1.0000
  Fe  Fe7       1.0  0.0024932323387599578  0.005927945031128417  0.9995074697730372  1.0000
  Fe  Fe8       1.0  0.005786897842473374  0.0024626937920759844  0.9992462049287347  1.0000
  Fe  Fe9       1.0  0.009120231209257123  0.009129359929296949  0.9989798502229548  1.0000
  Fe  Fe10      1.0  0.004368074159154049  0.007537306114492421  0.9991436359809404  1.0000
  Fe  Fe11      1.0  0.007701407330401  0.004203972812302953  0.9988772811754797  1.0000
  Fe  Fe12      1.0  0.001251420840034711  0.0008888012689991279  0.9994112396199076  1.0000
  Fe  Fe13      1.0  0.0003846238067799279  0.0070567009999123985  0.9995675725194086  1.0000
  Fe  Fe14      1.0  0.0037333534547974168  0.003762899539658797  0.9993211042586216  1.0000
  Fe  Fe15      1.0  0.00714070345998508  0.0004105301048463192  0.9990618418387758  1.0000
  Fe  Fe16      1.0  0.006347601944656898  0.0062561365871247375  0.9990616442588708  1.0000
  Fe  Fe17      1.0  0.009615376324254762  0.0031211440780962558  0.9995678651290879  1.0000
  Fe  Fe18      1.0  0.0029447402164369855  0.009631646312531524  0.9993200421333592  1.0000
  Si  Si1       1.0  0.001893173727951038  0.006884063238389891  0.9990154253763014  1.0000
  Si  Si2       1.0  0.004800243709874515  0.0033810319997978886  0.9995535592135301  1.0000
  Si  Si3       1.0  0.008559839859885725  0.0002173964004319679  0.9992817801656095  1.0000
  Si  Si4       1.0  0.002712755412453373  0.005032128509253316  0.99916350431176  1.0000
  Si  Si5       1.0  0.006046088892723798  0.00169879532385334  0.9988971494975423  1.0000
  Si  Si6       1.0  0.00926265583119864  0.008404470903607596  0.9994428644985759  1.0000
  Si  Si7       1.0  0.004928465509917173  0.006449269970367983  0.9988417059503552  1.0000
  Si  Si8       1.0  0.008134642358772964  0.0031525623203684165  0.9993703521103582  1.0000
  Si  Si9       1.0  0.0015951323523009093  0.009782603739715423  0.9991080607294333  1.0000
  Si  Si10      1.0  0.005739692686476169  0.006366332612589556  0.9992851828743108  1.0000
  Si  Si11      1.0  0.00907302581181111  0.0030329993104000873  0.9990188280691747  1.0000
  Si  Si12      1.0  0.002186960314890804  0.009626331923438116  0.9995538851853574  1.0000
  Si  Si13      1.0  0.0011214234276210224  0.007013388448506335  0.9993593071463803  1.0000
  Si  Si14      1.0  0.004415279462935198  0.0036336672939788497  0.9991046580343191  1.0000
  Si  Si15      1.0  0.0077486129397979515  0.00030033399178938094  0.998838303226697  1.0000
  Si  Si16      1.0  0.003983221058175972  0.008286852672278144  0.999505541672483  1.0000
  Si  Si17      1.0  0.0074422167929179195  0.00496787139731509  0.999226336596474  1.0000
  Si  Si18      1.0  0.0007755499865766955  0.0016345380951256214  0.9989599820399689  1.0000
