data_image0
_chemical_formula_structural       Al6Sb6CO
_chemical_formula_sum              "Al6 Sb6 C1 O1"
_cell_length_a       6.282505512237549
_cell_length_b       7.69446613811732
_cell_length_c       36.16767501831055
_cell_angle_alpha    85.65224687895122
_cell_angle_beta     90.0
_cell_angle_gamma    114.09484344286633

_space_group_name_H-M_alt    "P 1"
_space_group_IT_number       1

loop_
  _space_group_symop_operation_xyz
  'x, y, z'

loop_
  _atom_site_type_symbol
  _atom_site_label
  _atom_site_symmetry_multiplicity
  _atom_site_fract_x
  _atom_site_fract_y
  _atom_site_fract_z
  _atom_site_occupancy
  Al  Al1       1.0  0.0024207634031860616  0.0035416665389386257  0.9986047039529502  1.0000
  Al  Al2       1.0  0.00832508596435263  0.005348819809079618  0.9994067736474319  1.0000
  Al  Al3       1.0  0.006587430118285063  0.0018750000106440034  0.997825179245582  1.0000
  Al  Al4       1.0  0.0053374299531564  0.009374999787119932  0.9989944663645721  1.0000
  Al  Al5       1.0  0.0004959032431792114  0.0015252429810972037  0.9996231907676049  1.0000
  Al  Al6       1.0  0.009504096875425758  0.007708333524925395  0.9982149416529122  1.0000
  Sb  Sb1       1.0  0.004376195339270135  0.0023150739371647524  0.9991951483208367  1.0000
  Sb  Sb2       1.0  0.001204067518866669  0.004782758402171935  0.9999228631824381  1.0000
  Sb  Sb3       1.0  0.008462430056212555  0.000624999981372994  0.9984098227460664  1.0000
  Sb  Sb4       1.0  0.006716833691537674  0.007975879066102974  0.9996133416557693  1.0000
  Sb  Sb5       1.0  0.0055457636108174335  0.004791666900834742  0.9980200604471013  1.0000
  Sb  Sb6       1.0  0.0013790966885480745  0.006458333163029279  0.9987995851587612  1.0000
  C   C1        1.0  0.0032707486224372202  0.0020788791106119385  1.1644780449247936e-05  1.0000
  O   O1        1.0  0.0032707486224372202  0.0020788791106119385  0.00034343261337733814  1.0000
