data_image0
_chemical_formula_structural       Sb24Au12H
_chemical_formula_sum              "Sb24 Au12 H1"
_cell_length_a       9.668693542480469
_cell_length_b       9.668693284209693
_cell_length_c       105.5250473022461
_cell_angle_alpha    90.0
_cell_angle_beta     90.0
_cell_angle_gamma    59.99999911637196

_space_group_name_H-M_alt    "P 1"
_space_group_IT_number       1

loop_
  _space_group_symop_operation_xyz
  'x, y, z'

loop_
  _atom_site_type_symbol
  _atom_site_label
  _atom_site_symmetry_multiplicity
  _atom_site_fract_x
  _atom_site_fract_y
  _atom_site_fract_z
  _atom_site_occupancy
  Sb  Sb1       1.0  0.003094679993853835  0.0010036102633980317  0.9997761221738989  1.0000
  Sb  Sb2       1.0  0.006651327905284288  0.004182023047747759  0.9994030370859984  1.0000
  Sb  Sb3       1.0  0.009984660568530944  0.007515357104783933  0.9990289813225601  1.0000
  Sb  Sb4       1.0  0.0009959527445984506  0.005917087558002054  0.99977612160906  1.0000
  Sb  Sb5       1.0  0.004174362776299385  0.009182023688402733  0.9994030370859984  1.0000
  Sb  Sb6       1.0  0.00750769627721145  0.002515356686578603  0.9990289813225601  1.0000
  Sb  Sb7       1.0  0.005909428224338236  0.003102336118464565  0.99977612160906  1.0000
  Sb  Sb8       1.0  0.009174362439916142  0.00665898870747375  0.9994030370859984  1.0000
  Sb  Sb9       1.0  0.002507695942082956  0.009992322319610636  0.9990289813225601  1.0000
  Sb  Sb10      1.0  0.006666686388998175  0.006674345741073797  0.9999716021627345  1.0000
  Sb  Sb11      1.0  1.7999747989375204e-08  7.678250034239895e-06  0.9995883420680614  1.0000
  Sb  Sb12      1.0  0.00333335102869302  0.003341011684037623  0.9992142860222035  1.0000
  Sb  Sb13      1.0  0.00666668429968339  0.006674345296174509  0.9996844409232442  1.0000
  Sb  Sb14      1.0  1.7999747989375204e-08  7.678250034239895e-06  0.9993103848773864  1.0000
  Sb  Sb15      1.0  0.0033333499244304113  0.003341012351386554  7.852389483362432e-05  1.0000
  Sb  Sb16      1.0  0.007477375499007509  0.009811628253658822  0.9998733467528799  1.0000
  Sb  Sb17      1.0  0.000825673081107304  0.0033563682727383824  0.9994956898594493  1.0000
  Sb  Sb18      1.0  0.004159006381900283  0.006689701439975982  0.9991216335311721  1.0000
  Sb  Sb19      1.0  0.0027187073661589702  0.007485036328553838  0.9998733473177186  1.0000
  Sb  Sb20      1.0  0.00582567290956489  0.0008333333474218107  0.9994956898594493  1.0000
  Sb  Sb21      1.0  0.009159005823067397  0.004166666903946286  0.9991216335311721  1.0000
  Sb  Sb22      1.0  0.009803974613778552  0.0027263690818144304  0.9998733473177186  1.0000
  Sb  Sb23      1.0  0.0033487076455417657  0.005833333487565086  0.9994956898594493  1.0000
  Sb  Sb24      1.0  0.006682041138981781  0.009166666654802685  0.9991216335311721  1.0000
  Au  Au1       1.0  0.008333350853756362  0.00834101187979331  0.9996363912132333  1.0000
  Au  Au2       1.0  0.0016666847228794946  0.0016743449891940014  0.999262335449795  1.0000
  Au  Au3       1.0  0.005011006802074362  0.004826287489420651  0.9999999983054835  1.0000
  Au  Au4       1.0  0.008333351105751834  0.003341011684037623  0.9996363912132333  1.0000
  Au  Au5       1.0  0.0016666846079186474  0.006674345296174509  0.999262335449795  1.0000
  Au  Au6       1.0  0.004818625710892606  0.0001780857604612266  0.0  1.0000
  Au  Au7       1.0  0.0033333511619916185  0.00834101187979331  0.9996363912132333  1.0000
  Au  Au8       1.0  0.006666684607291273  0.0016743449891940014  0.999262335449795  1.0000
  Au  Au9       1.0  0.0001704098739273441  0.005018673953542776  0.9999999988703223  1.0000
  Au  Au10      1.0  0.00666668429968339  0.006674345296174509  0.999262335449795  1.0000
  Au  Au11      1.0  0.009999981766673525  7.682550437702774e-06  0.9999578839219502  1.0000
  Au  Au12      1.0  0.00333335102869302  0.003341011684037623  0.9996363912132333  1.0000
  H   H1        1.0  0.003864856780244808  0.006155662131436888  7.881930554429895e-05  1.0000
