data_image0
_chemical_formula_structural       HCu30Ru10Cu30Ru10
_chemical_formula_sum              "H1 Cu60 Ru20"
_cell_length_a       14.025176652090131
_cell_length_b       6.791891290148218
_cell_length_c       103.95945739746094
_cell_angle_alpha    85.05221586163309
_cell_angle_beta     81.51797321058906
_cell_angle_gamma    53.843227967233645

_space_group_name_H-M_alt    "P 1"
_space_group_IT_number       1

loop_
  _space_group_symop_operation_xyz
  'x, y, z'

loop_
  _atom_site_type_symbol
  _atom_site_label
  _atom_site_symmetry_multiplicity
  _atom_site_fract_x
  _atom_site_fract_y
  _atom_site_fract_z
  _atom_site_occupancy
  H   H1        1.0  0.00964996374300774  0.005003544828210474  0.9999576240899206  1.0000
  Cu  Cu1       1.0  0.0043500361114558635  0.008184802203509605  0.9987864884428079  1.0000
  Cu  Cu2       1.0  0.008350035926535737  0.0061848018883026564  0.9989171526425472  1.0000
  Cu  Cu3       1.0  0.0003500361332531469  0.0001848020041276241  0.9986558242893484  1.0000
  Cu  Cu4       1.0  0.0023500360631037594  0.004184802252421028  0.9990478168664619  1.0000
  Cu  Cu5       1.0  0.00635003582965077  0.00218480210704541  0.9991784813528826  1.0000
  Cu  Cu6       1.0  0.00536363778714438  0.005143997715706114  0.9989851507754715  1.0000
  Cu  Cu7       1.0  0.00936363750515853  0.003143997740161826  0.9991158146885558  1.0000
  Cu  Cu8       1.0  0.0013636375320264847  0.007143997691250402  0.99885448629973  1.0000
  Cu  Cu9       1.0  0.0033636374945068344  0.0011439976797018724  0.9985931579177084  1.0000
  Cu  Cu10      1.0  0.007363637738430763  0.00914399800645735  0.9987238220651625  1.0000
  Cu  Cu11      1.0  0.006377239129487046  0.007171200594354221  0.9988527091032945  1.0000
  Cu  Cu12      1.0  0.00037723909456891864  0.005171200618809933  0.9989833733325355  1.0000
  Cu  Cu13      1.0  0.0023772387773034268  0.00917120090956117  0.9987220449142431  1.0000
  Cu  Cu14      1.0  0.004377239081134942  0.0031712006432656446  0.999114037813621  1.0000
  Cu  Cu15      1.0  0.008377238847681953  0.0011712004978900264  0.9985913807266124  1.0000
  Cu  Cu16      1.0  0.0033772392560817784  0.007815198280170021  0.9991372958470001  1.0000
  Cu  Cu17      1.0  0.007377239608265397  0.005815197964963073  0.9986146390359673  1.0000
  Cu  Cu18      1.0  0.009377239462486055  0.00981519859537697  0.9990066316124326  1.0000
  Cu  Cu19      1.0  0.0013772390362435244  0.0038151979894187854  0.9987453032758963  1.0000
  Cu  Cu20      1.0  0.0053772390228095475  0.0018151980138744967  0.9988759674703092  1.0000
  Cu  Cu21      1.0  0.0023636375673207993  0.0008560025505894109  0.9989386338426283  1.0000
  Cu  Cu22      1.0  0.006363637298407412  0.008856002792429225  0.9990692982874384  1.0000
  Cu  Cu23      1.0  0.008363637602238927  0.0028560025261336994  0.9988079696133871  1.0000
  Cu  Cu24      1.0  0.00036363762910688  0.006856002477222276  0.999199962511318  1.0000
  Cu  Cu25      1.0  0.004363637884224776  0.004856002501677988  0.9986773054136303  1.0000
  Cu  Cu26      1.0  0.0013500359694987236  0.008828799889325405  0.99907107547853  1.0000
  Cu  Cu27      1.0  0.0053500360531304695  0.006828799574118458  0.9992017393862528  1.0000
  Cu  Cu28      1.0  0.007350036284162692  0.000828799562569927  0.9989404109988872  1.0000
  Cu  Cu29      1.0  0.00935003577114462  0.0048287995985741685  0.9986790825859255  1.0000
  Cu  Cu30      1.0  0.0033500360047783654  0.00282879962302988  0.9988097468098227  1.0000
  Ru  Ru1       1.0  0.004363637548920149  0.009833333864112849  0.9990054471568928  1.0000
  Ru  Ru2       1.0  0.008363637364000021  0.007833333548905901  0.9991361110699595  1.0000
  Ru  Ru3       1.0  0.00036363764634738576  0.001833333282610376  0.9988747827174089  1.0000
  Ru  Ru4       1.0  0.00236363769469949  0.005833333233698953  0.9986134542937549  1.0000
  Ru  Ru5       1.0  0.006363637315647918  0.0038333335978173243  0.9987441184935294  1.0000
  Ru  Ru6       1.0  0.0033636378186174933  0.0061666666195667776  0.9989183374195878  1.0000
  Ru  Ru7       1.0  0.007363637439565921  0.004166666983685149  0.9990490019060347  1.0000
  Ru  Ru8       1.0  0.00936363802502177  0.008166666934773727  0.9987876731850203  1.0000
  Ru  Ru9       1.0  0.0013636375874565918  0.0021666668383095306  0.9991796661325951  1.0000
  Ru  Ru10      1.0  0.005363637485246236  0.0001666667035483705  0.998657009042915  1.0000
  Cu  Cu31      1.0  0.0043500361114558635  0.008184802203509605  0.9994398097295646  1.0000
  Cu  Cu32      1.0  0.008350035926535737  0.0061848018883026564  0.9995704736426313  1.0000
  Cu  Cu33      1.0  0.0003500361332531469  0.0001848020041276241  0.9993091455761051  1.0000
  Cu  Cu34      1.0  0.0023500360631037594  0.004184802252421028  0.999701137866546  1.0000
  Cu  Cu35      1.0  0.00635003582965077  0.00218480210704541  0.9998318023529666  1.0000
  Cu  Cu36      1.0  0.00536363778714438  0.005143997715706114  0.9996384717755555  1.0000
  Cu  Cu37      1.0  0.00936363750515853  0.003143997740161826  0.9997691362619849  1.0000
  Cu  Cu38      1.0  0.0013636375320264847  0.007143997691250402  0.999507807299814  1.0000
  Cu  Cu39      1.0  0.0033636374945068344  0.0011439976797018724  0.9992464789177925  1.0000
  Cu  Cu40      1.0  0.007363637738430763  0.00914399800645735  0.9993771430652466  1.0000
  Cu  Cu41      1.0  0.006377239129487046  0.007171200594354221  0.9995060301033786  1.0000
  Cu  Cu42      1.0  0.00037723909456891864  0.005171200618809933  0.9996366943326197  1.0000
  Cu  Cu43      1.0  0.0023772387773034268  0.00917120090956117  0.9993753662009998  1.0000
  Cu  Cu44      1.0  0.004377239081134942  0.0031712006432656446  0.999767358813705  1.0000
  Cu  Cu45      1.0  0.008377238847681953  0.0011712004978900264  0.9992447017266964  1.0000
  Cu  Cu46      1.0  0.0033772392560817784  0.007815198280170021  0.9997906174204293  1.0000
  Cu  Cu47      1.0  0.007377239608265397  0.005815197964963073  0.9992679603227239  1.0000
  Cu  Cu48      1.0  0.009377239462486055  0.00981519859537697  0.9996599531858618  1.0000
  Cu  Cu49      1.0  0.0013772390362435244  0.0038151979894187854  0.9993986245626529  1.0000
  Cu  Cu50      1.0  0.0053772390228095475  0.0018151980138744967  0.9995292884703932  1.0000
  Cu  Cu51      1.0  0.0023636375673207993  0.0008560025505894109  0.9995919551293849  1.0000
  Cu  Cu52      1.0  0.006363637298407412  0.008856002792429225  0.9997226192875226  1.0000
  Cu  Cu53      1.0  0.008363637602238927  0.0028560025261336994  0.9994612909001438  1.0000
  Cu  Cu54      1.0  0.00036363762910688  0.006856002477222276  0.9998532835114021  1.0000
  Cu  Cu55      1.0  0.004363637884224776  0.004856002501677988  0.9993306264137144  1.0000
  Cu  Cu56      1.0  0.0013500359694987236  0.008828799889325405  0.9997243964786141  1.0000
  Cu  Cu57      1.0  0.0053500360531304695  0.006828799574118458  0.999855060959682  1.0000
  Cu  Cu58      1.0  0.007350036284162692  0.000828799562569927  0.9995937319989713  1.0000
  Cu  Cu59      1.0  0.00935003577114462  0.0048287995985741685  0.9993324038726822  1.0000
  Cu  Cu60      1.0  0.0033500360047783654  0.00282879962302988  0.9994630680965794  1.0000
  Ru  Ru11      1.0  0.004363637548920149  0.009833333864112849  0.9996587681569769  1.0000
  Ru  Ru12      1.0  0.008363637364000021  0.007833333548905901  0.9997894320700436  1.0000
  Ru  Ru13      1.0  0.00036363764634738576  0.001833333282610376  0.9995281040041656  1.0000
  Ru  Ru14      1.0  0.00236363769469949  0.005833333233698953  0.999266775293839  1.0000
  Ru  Ru15      1.0  0.006363637315647918  0.0038333335978173243  0.9993974397802861  1.0000
  Ru  Ru16      1.0  0.0033636378186174933  0.0061666666195667776  0.9995716584196719  1.0000
  Ru  Ru17      1.0  0.007363637439565921  0.004166666983685149  0.9997023229061188  1.0000
  Ru  Ru18      1.0  0.00936363802502177  0.008166666934773727  0.9994409941851043  1.0000
  Ru  Ru19      1.0  0.0013636375874565918  0.0021666668383095306  0.9998329871326792  1.0000
  Ru  Ru20      1.0  0.005363637485246236  0.0001666667035483705  0.9993103300429992  1.0000
