data_image0
_chemical_formula_structural       COGa3Sb3Ga3Sb3Ga3Sb3Ga3Sb3
_chemical_formula_sum              "C1 O1 Ga12 Sb12"
_cell_length_a       8.895852462306406
_cell_length_b       8.895852088928223
_cell_length_c       102.6854476928711
_cell_angle_alpha    90.0
_cell_angle_beta     90.0
_cell_angle_gamma    119.99999861157197

_space_group_name_H-M_alt    "P 1"
_space_group_IT_number       1

loop_
  _space_group_symop_operation_xyz
  'x, y, z'

loop_
  _atom_site_type_symbol
  _atom_site_label
  _atom_site_symmetry_multiplicity
  _atom_site_fract_x
  _atom_site_fract_y
  _atom_site_fract_z
  _atom_site_occupancy
  C   C1        1.0  0.005000000077368094  0.00416666676676989  0.00012446656324783956  1.0000
  O   O1        1.0  0.005000000077368094  0.00416666676676989  0.00024132795873926113  1.0000
  Ga  Ga1       1.0  0.0008333333059321336  0.0008333333349875275  0.0  1.0000
  Ga  Ga2       1.0  0.002500000038684047  0.004166666688800471  0.9992926523556921  1.0000
  Ga  Ga3       1.0  0.004166666408773022  0.002499999938753861  0.9996463260327314  1.0000
  Sb  Sb1       1.0  0.002500000038684047  0.004166666688800471  0.9995579076860289  1.0000
  Sb  Sb2       1.0  0.004166666408773022  0.002499999938753861  0.9999115816532975  1.0000
  Sb  Sb3       1.0  0.0008333333059321336  0.0008333333349875275  0.9992042340089895  1.0000
  Ga  Ga4       1.0  0.0008333333059321336  0.005833333414553279  0.0  1.0000
  Ga  Ga5       1.0  0.002500000038684047  0.009166666663674444  0.9992926523556921  1.0000
  Ga  Ga6       1.0  0.004166666408773022  0.007499999965973724  0.9996463260327314  1.0000
  Sb  Sb4       1.0  0.002500000038684047  0.009166666663674444  0.9995579076860289  1.0000
  Sb  Sb5       1.0  0.004166666408773022  0.007499999965973724  0.9999115816532975  1.0000
  Sb  Sb6       1.0  0.0008333333059321336  0.005833333414553279  0.9992042340089895  1.0000
  Ga  Ga7       1.0  0.005833333262412581  0.0008333333257907644  0.0  1.0000
  Ga  Ga8       1.0  0.00750000011605214  0.004166666687701642  0.9992926523556921  1.0000
  Ga  Ga9       1.0  0.009166666486141116  0.002499999937655032  0.9996463260327314  1.0000
  Sb  Sb7       1.0  0.00750000011605214  0.004166666687701642  0.9995579076860289  1.0000
  Sb  Sb8       1.0  0.009166666486141116  0.002499999937655032  0.9999115816532975  1.0000
  Sb  Sb9       1.0  0.005833333262412581  0.0008333333257907644  0.9992042340089895  1.0000
  Ga  Ga10      1.0  0.005833333262412581  0.005833333510048294  0.0  1.0000
  Ga  Ga11      1.0  0.00750000011605214  0.009166666819613282  0.9992926523556921  1.0000
  Ga  Ga12      1.0  0.009166666486141116  0.007500000121912561  0.9996463260327314  1.0000
  Sb  Sb10      1.0  0.00750000011605214  0.009166666819613282  0.9995579076860289  1.0000
  Sb  Sb11      1.0  0.009166666486141116  0.007500000121912561  0.9999115816532975  1.0000
  Sb  Sb12      1.0  0.005833333262412581  0.005833333510048294  0.9992042340089895  1.0000
