data_image0
_chemical_formula_structural       COCa8In4
_chemical_formula_sum              "C1 O1 Ca8 In4"
_cell_length_a       5.46760892868042
_cell_length_b       7.3722357749938965
_cell_length_c       100.48516082763672
_cell_angle_alpha    90.0
_cell_angle_beta     90.0
_cell_angle_gamma    90.0

_space_group_name_H-M_alt    "P 1"
_space_group_IT_number       1

loop_
  _space_group_symop_operation_xyz
  'x, y, z'

loop_
  _atom_site_type_symbol
  _atom_site_label
  _atom_site_symmetry_multiplicity
  _atom_site_fract_x
  _atom_site_fract_y
  _atom_site_fract_z
  _atom_site_occupancy
  C   C1        1.0  0.002500014655582608  0.004455662467136834  3.09497593956202e-05  1.0000
  O   O1        1.0  0.002500014655582608  0.004455662467136834  0.0001503700261814192  1.0000
  Ca  Ca1       1.0  0.0074999920147174265  0.004668370649832844  0.9996423756695783  1.0000
  Ca  Ca2       1.0  0.0024999918307561384  0.005356946708877781  0.9992341579109599  1.0000
  Ca  Ca3       1.0  0.007500008366831912  0.009643053250697137  0.9997260788807217  1.0000
  Ca  Ca4       1.0  0.0024999918307561384  0.00035694654338760815  0.9991367430138592  1.0000
  Ca  Ca5       1.0  0.0074999926960555305  0.003039172703316971  0.0  1.0000
  Ca  Ca6       1.0  0.00250000750153252  0.006808518873402812  0.9998829405443455  1.0000
  Ca  Ca7       1.0  0.0074999920147174265  0.0082767486976171  0.9993726696065559  1.0000
  Ca  Ca8       1.0  0.0024999918307561384  0.0017485685347651487  0.9995038639739823  1.0000
  In  In1       1.0  0.0074999920147174265  0.002771056136837668  0.9993240885029229  1.0000
  In  In2       1.0  0.0024999918307561384  0.007254261474529709  0.9995524453741996  1.0000
  In  In3       1.0  0.0074999920147174265  0.007771056207581558  0.9990468124218963  1.0000
  In  In4       1.0  0.0025000216392981694  0.002102806060870857  0.999834220639254  1.0000
