data_image0
_chemical_formula_structural       HCo2Sb4Co2Sb4Co2Sb4Co2Sb4
_chemical_formula_sum              "H1 Co8 Sb16"
_cell_length_a       6.843891620635986
_cell_length_b       5.664557456970215
_cell_length_c       108.7973403930664
_cell_angle_alpha    90.0
_cell_angle_beta     90.0
_cell_angle_gamma    90.0

_space_group_name_H-M_alt    "P 1"
_space_group_IT_number       1

loop_
  _space_group_symop_operation_xyz
  'x, y, z'

loop_
  _atom_site_type_symbol
  _atom_site_label
  _atom_site_symmetry_multiplicity
  _atom_site_fract_x
  _atom_site_fract_y
  _atom_site_fract_z
  _atom_site_occupancy
  H   H1        1.0  0.005000000087091743  0.004815983363964692  7.795141366389242e-05  1.0000
  Co  Co1       1.0  0.0  3.0305499181357262e-05  0.9993104225958668  1.0000
  Co  Co2       1.0  0.0025000000435458714  0.005030305239923808  0.9990132541289497  1.0000
  Sb  Sb1       1.0  0.0  0.0020408432042408066  0.9989281702535223  1.0000
  Sb  Sb2       1.0  0.0  0.008019767275606809  0.9990983382783023  1.0000
  Sb  Sb3       1.0  0.0025000000435458714  0.00704084299379314  0.9993955064712943  1.0000
  Sb  Sb4       1.0  0.0025000000435458714  0.003019767814878953  0.9992253387204393  1.0000
  Co  Co3       1.0  0.010000000174183486  0.009969694457557672  0.9998941257573043  1.0000
  Co  Co4       1.0  0.0025000000435458714  0.005030305239923808  0.9996075907888587  1.0000
  Sb  Sb5       1.0  0.0  0.0020408432042408066  0.9995225069134313  1.0000
  Sb  Sb6       1.0  0.0  0.008019767275606809  0.9996926746642861  1.0000
  Sb  Sb7       1.0  0.0025000000435458714  0.0072391280999572535  0.0  1.0000
  Sb  Sb8       1.0  0.0025000000435458714  0.003113860281626959  0.999825594079992  1.0000
  Co  Co5       1.0  0.005000000087091743  3.0305499181357262e-05  0.9993104225958668  1.0000
  Co  Co6       1.0  0.007500000130637614  0.005030305239923808  0.9990132541289497  1.0000
  Sb  Sb9       1.0  0.005000000087091743  0.0020408432042408066  0.9989281702535223  1.0000
  Sb  Sb10      1.0  0.005000000087091743  0.008019767275606809  0.9990983382783023  1.0000
  Sb  Sb11      1.0  0.007500000130637614  0.00704084299379314  0.9993955064712943  1.0000
  Sb  Sb12      1.0  0.007500000130637614  0.003019767814878953  0.9992253387204393  1.0000
  Co  Co7       1.0  0.005000000087091743  0.009969694457557672  0.9998941257573043  1.0000
  Co  Co8       1.0  0.007500000130637614  0.005030305239923808  0.9996075907888587  1.0000
  Sb  Sb13      1.0  0.005000000087091743  0.0020408432042408066  0.9995225069134313  1.0000
  Sb  Sb14      1.0  0.005000000087091743  0.008019767275606809  0.9996926746642861  1.0000
  Sb  Sb15      1.0  0.007500000130637614  0.0072391280999572535  0.0  1.0000
  Sb  Sb16      1.0  0.007500000130637614  0.003113860281626959  0.999825594079992  1.0000
