data_image0
_chemical_formula_structural       HGa54Ir12
_chemical_formula_sum              "H1 Ga54 Ir12"
_cell_length_a       11.08096198481638
_cell_length_b       13.128765138091145
_cell_length_c       103.47987365722656
_cell_angle_alpha    93.3055912070773
_cell_angle_beta     99.16397059071545
_cell_angle_gamma    106.68991241479735

_space_group_name_H-M_alt    "P 1"
_space_group_IT_number       1

loop_
  _space_group_symop_operation_xyz
  'x, y, z'

loop_
  _atom_site_type_symbol
  _atom_site_label
  _atom_site_symmetry_multiplicity
  _atom_site_fract_x
  _atom_site_fract_y
  _atom_site_fract_z
  _atom_site_occupancy
  H   H1        1.0  0.008066096412538155  6.14960478596532e-05  7.76847954303737e-05  1.0000
  Ga  Ga1       1.0  0.007056767598426168  0.005864467205498042  0.999407264571632  1.0000
  Ga  Ga2       1.0  0.0028901011337007835  0.0025311342814405063  0.9996768809441212  1.0000
  Ga  Ga3       1.0  0.008593224609513976  0.009078176065698863  0.9999737265545497  1.0000
  Ga  Ga4       1.0  0.003580066938197403  0.008911521742472363  0.9999775098046809  1.0000
  Ga  Ga5       1.0  0.001978702938361646  0.005802015493684456  0.9994123160072992  1.0000
  Ga  Ga6       1.0  0.00781203653062471  0.0024686824206187415  0.9996819325870311  1.0000
  Ga  Ga7       1.0  0.00484404430148381  0.008383721660885498  0.9993526553441738  1.0000
  Ga  Ga8       1.0  0.0006773777293877509  0.005050388438811605  0.9996222722886541  1.0000
  Ga  Ga9       1.0  0.006676603392397251  0.0018405409765529692  0.9999114554062354  1.0000
  Ga  Ga10      1.0  0.00908857129052412  0.007779343892146649  0.9994015405346973  1.0000
  Ga  Ga11      1.0  0.0049219049515921145  0.004446010372056399  0.9996711569049714  1.0000
  Ga  Ga12      1.0  0.000719105590337683  0.000971293123777513  2.5776816190860505e-05  1.0000
  Ga  Ga13      1.0  0.006166465106799299  0.008699022370929258  0.9996384112011947  1.0000
  Ga  Ga14      1.0  0.0018232109927928143  0.005292994018806939  0.9999009904690319  1.0000
  Ga  Ga15      1.0  0.0003331319796339176  0.002032355926781472  0.9993687946386866  1.0000
  Ga  Ga16      1.0  0.0012542663330556082  0.008769263634291263  0.9996327301090906  1.0000
  Ga  Ga17      1.0  0.007001136111048774  0.005429706638610469  0.9998884025106004  1.0000
  Ga  Ga18      1.0  0.005420933081492817  0.002102596892127119  0.9993631131736392  1.0000
  Ga  Ga19      1.0  0.009064613322749564  0.006303577023104783  0.999668655444255  1.0000
  Ga  Ga20      1.0  0.0048687511280473255  0.003000513620463304  0.9999373853642614  1.0000
  Ga  Ga21      1.0  0.003231280082139722  0.009636910245178676  0.9993990385836091  1.0000
  Ga  Ga22      1.0  0.008133858387946608  0.00955897300740446  0.9994053425732852  1.0000
  Ga  Ga23      1.0  0.0039671918158505496  0.006225639785330569  0.9996749595177655  1.0000
  Ga  Ga24      1.0  0.009823379538436  0.0028144506839480167  0.9999921425566787  1.0000
  Ga  Ga25      1.0  0.008641491125726063  0.008520535606250526  0.9996629526437878  1.0000
  Ga  Ga26      1.0  0.004496962178569885  0.005057859708890374  0.9999355634731542  1.0000
  Ga  Ga27      1.0  0.0028081580300090255  0.001853869013094562  0.9993933360807259  1.0000
  Ga  Ga28      1.0  0.0020051412872764142  0.007211455842234469  0.9997688373673677  1.0000
  Ga  Ga29      1.0  0.007903989833854808  0.003939390909019125  4.596006383918161e-05  1.0000
  Ga  Ga30      1.0  0.006171808024595127  0.0005447889510621474  0.9994992210066389  1.0000
  Ga  Ga31      1.0  0.006597520875789229  0.006523532167876075  0.9996531711047227  1.0000
  Ga  Ga32      1.0  0.0023216381094265026  0.0031814310065525833  0.9999353189770459  1.0000
  Ga  Ga33      1.0  0.0007641875500457063  0.009856865389949968  0.9993835545306262  1.0000
  Ga  Ga34      1.0  0.0032530677997198005  0.007847969906851816  0.9995460439902852  1.0000
  Ga  Ga35      1.0  0.009063898576871647  0.004430522461964911  0.9998057325524407  1.0000
  Ga  Ga36      1.0  0.0042542832221055885  0.001607455231076829  0.0001131467689745521  1.0000
  Ga  Ga37      1.0  0.008157031706879564  0.00044627126242999997  0.9997335639292154  1.0000
  Ga  Ga38      1.0  0.0038539094768151156  0.006952033199193866  0.9999964711582587  1.0000
  Ga  Ga39      1.0  0.0023236980225743047  0.0037796046707641163  0.9994639470623654  1.0000
  Ga  Ga40      1.0  0.0007749144734506749  0.008484352844271929  0.9998899686425359  1.0000
  Ga  Ga41      1.0  0.009198564762370331  0.00527949805004798  0.9993426283119319  1.0000
  Ga  Ga42      1.0  0.005031898082903599  0.0019461645299577294  0.9996122449643997  1.0000
  Ga  Ga43      1.0  0.001259309696723256  0.00771793404551836  0.9993077946281196  1.0000
  Ga  Ga44      1.0  0.007092642852199416  0.004384600823444467  0.9995774111993124  1.0000
  Ga  Ga45      1.0  0.002806650976967577  0.0009119380254290634  0.9998420266916415  1.0000
  Ga  Ga46      1.0  0.004532631090765635  0.006336591275172034  0.9994195244129808  1.0000
  Ga  Ga47      1.0  0.0003659645186695767  0.0030032580530981417  0.9996891407814588  1.0000
  Ga  Ga48      1.0  0.006244818012319835  0.009718396261736217  0.9999206648045924  1.0000
  Ga  Ga49      1.0  0.0004254221919428136  0.0006766045660816988  0.9996410026367321  1.0000
  Ga  Ga50      1.0  0.006206636218924626  0.007304314162988493  0.9998953292703179  1.0000
  Ga  Ga51      1.0  0.00459208888157447  0.00400993793716377  0.9993713859833475  1.0000
  Ga  Ga52      1.0  0.009745221027229358  0.0064643526756661945  1.6161502487156268e-05  1.0000
  Ga  Ga53      1.0  0.00866946308566855  0.003271837248718329  0.999431087116439  1.0000
  Ga  Ga54      1.0  0.004502796422365021  0.009938503990882473  0.99970070347734  1.0000
  Ir  Ir1       1.0  0.006783916466449398  0.007678811650190859  0.9994455675890517  1.0000
  Ir  Ir2       1.0  0.002617249701848984  0.004345478130100609  0.9997151845280688  1.0000
  Ir  Ir3       1.0  0.008444557097008584  0.0009333967677441513  0.9999719176158925  1.0000
  Ir  Ir4       1.0  0.0007172435896665199  0.006825473400652542  0.9995145899534343  1.0000
  Ir  Ir5       1.0  0.006550576915410043  0.0034921401785786487  0.9997842062395297  1.0000
  Ir  Ir6       1.0  0.0023541392818138686  7.119375157912907e-05  3.4950061529688126e-05  1.0000
  Ir  Ir7       1.0  0.008423887174034275  0.007307329492492161  0.999861192539121  1.0000
  Ir  Ir8       1.0  0.006815037224010179  0.003972639997975968  0.9993234054275242  1.0000
  Ir  Ir9       1.0  0.0026483705982287835  0.0006393066268938962  0.9995930220819976  1.0000
  Ir  Ir10      1.0  0.008700290428846985  0.0014808426836402542  0.9995249546136538  1.0000
  Ir  Ir11      1.0  0.0045336237433064655  0.00814750912778804  0.9997945709719952  1.0000
  Ir  Ir12      1.0  0.00017662022558319793  0.004763936606208414  3.786344644612936e-05  1.0000
