data_image0
_chemical_formula_structural       COCa2Cu2As2Ca2Cu2As2Ca2Cu2As2Ca2Cu2As2
_chemical_formula_sum              "C1 O1 Ca8 Cu8 As8"
_cell_length_a       8.502668383736586
_cell_length_b       8.502668380737305
_cell_length_c       102.26570892333984
_cell_angle_alpha    90.0
_cell_angle_beta     90.0
_cell_angle_gamma    119.99999998833127

_space_group_name_H-M_alt    "P 1"
_space_group_IT_number       1

loop_
  _space_group_symop_operation_xyz
  'x, y, z'

loop_
  _atom_site_type_symbol
  _atom_site_label
  _atom_site_symmetry_multiplicity
  _atom_site_fract_x
  _atom_site_fract_y
  _atom_site_fract_z
  _atom_site_occupancy
  C   C1        1.0  0.0033418282054449317  0.002504244546575883  0.00015733791929392724  1.0000
  O   O1        1.0  0.0033418282054449317  0.002504244546575883  0.00027467896000431507  1.0000
  Ca  Ca1       1.0  0.0008331646414773642  0.002499900407081708  0.9998006899540822  1.0000
  Ca  Ca2       1.0  0.0008243166349534578  0.002495528979648401  0.9993920449975982  1.0000
  Cu  Cu1       1.0  0.004175683352398764  0.004171137636881186  0.0  1.0000
  Cu  Cu2       1.0  0.0024909832974041985  0.000828862435741364  0.9995892378736999  1.0000
  As  As1       1.0  0.0025079730584910997  0.0008373516753365327  0.9999759403248437  1.0000
  As  As2       1.0  0.0041576498966160455  0.004162195610479695  0.9995892378736999  1.0000
  Ca  Ca3       1.0  0.0008331646414773642  0.0074999002668795  0.9998006899540822  1.0000
  Ca  Ca4       1.0  0.0008243166349534578  0.007495528839446192  0.9993920449975982  1.0000
  Cu  Cu3       1.0  0.004175683352398764  0.009171137277613024  0.0  1.0000
  Cu  Cu4       1.0  0.0024909832974041985  0.005828862240772666  0.9995892378736999  1.0000
  As  As3       1.0  0.0025079730584910997  0.005837351425601347  0.9999759403248437  1.0000
  As  As4       1.0  0.0041576498966160455  0.009162195470277485  0.9995892378736999  1.0000
  Ca  Ca5       1.0  0.005833164628829586  0.002499900416092436  0.9998006899540822  1.0000
  Ca  Ca6       1.0  0.005824316748783466  0.0024955291614309977  0.9993920449975982  1.0000
  Cu  Cu5       1.0  0.009175683150034305  0.00417113752365033  0.0  1.0000
  Cu  Cu6       1.0  0.007490983347995314  0.0008288624763715379  0.9995892378736999  1.0000
  As  As5       1.0  0.007507972856126641  0.0008373515347224323  0.9999759403248437  1.0000
  As  As6       1.0  0.009157649441296014  0.004162195452920784  0.9995892378736999  1.0000
  Ca  Ca7       1.0  0.005833164628829586  0.007499900330656715  0.9998006899540822  1.0000
  Ca  Ca8       1.0  0.005824316748783466  0.0074955289664622995  0.9993920449975982  1.0000
  Cu  Cu7       1.0  0.009175683150034305  0.009171137246531902  0.0  1.0000
  Cu  Cu8       1.0  0.007490983347995314  0.005828862336169328  0.9995892378736999  1.0000
  As  As7       1.0  0.007507972856126641  0.005837351613586175  0.9999759403248437  1.0000
  As  As8       1.0  0.009157649441296014  0.009162195312718575  0.9995892378736999  1.0000
