data_image0
_chemical_formula_structural       COCa6In3Na3
_chemical_formula_sum              "C1 O1 Ca6 In3 Na3"
_cell_length_a       5.704753875732422
_cell_length_b       5.704753751776117
_cell_length_c       111.92121124267578
_cell_angle_alpha    90.0
_cell_angle_beta     90.0
_cell_angle_gamma    120.00000071877626

_space_group_name_H-M_alt    "P 1"
_space_group_IT_number       1

loop_
  _space_group_symop_operation_xyz
  'x, y, z'

loop_
  _atom_site_type_symbol
  _atom_site_label
  _atom_site_symmetry_multiplicity
  _atom_site_fract_x
  _atom_site_fract_y
  _atom_site_fract_z
  _atom_site_occupancy
  C   C1        1.0  0.009166675000926161  0.008333324586505476  0.00015475631055962352  1.0000
  O   O1        1.0  0.009166675000926161  0.008333324586505476  0.0002619748099437638  1.0000
  Ca  Ca1       1.0  0.0041666584424742085  0.008333333634948087  0.9993819072685147  1.0000
  Ca  Ca2       1.0  0.0008333250573457248  0.0016666667646914614  0.9989657294767793  1.0000
  Ca  Ca3       1.0  0.007500053069761616  0.005000029135985207  0.9998121307704767  1.0000
  Ca  Ca4       1.0  0.0008333250573457248  0.0016666667646914614  0.9995899961643825  1.0000
  Ca  Ca5       1.0  0.007499991537465962  0.0050000001055651635  0.9991738183726471  1.0000
  Ca  Ca6       1.0  0.00416667521825266  0.008333324586505476  0.0  1.0000
  In  In1       1.0  0.007499991537465962  0.0050000001055651635  0.9994859517164486  1.0000
  In  In2       1.0  0.0041666584424742085  0.008333333634948087  0.9990697739247132  1.0000
  In  In3       1.0  0.0008333324769103766  0.0016666694038205564  0.9998948291898485  1.0000
  Na  Na1       1.0  0.0041666584424742085  0.008333333634948087  0.9996940406123164  1.0000
  Na  Na2       1.0  0.0008333250573457248  0.0016666667646914614  0.999277862820581  1.0000
  Na  Na3       1.0  0.007499991537465962  0.0050000001055651635  0.9988616850288454  1.0000
