data_image0
_chemical_formula_structural       COTi4Al4Au4Ti4Al4Au4
_chemical_formula_sum              "C1 O1 Ti8 Al8 Au8"
_cell_length_a       7.761942386627197
_cell_length_b       7.3255272130378595
_cell_length_c       101.36951446533203
_cell_angle_alpha    107.81068315702272
_cell_angle_beta     90.0
_cell_angle_gamma    58.00891615657309

_space_group_name_H-M_alt    "P 1"
_space_group_IT_number       1

loop_
  _space_group_symop_operation_xyz
  'x, y, z'

loop_
  _atom_site_type_symbol
  _atom_site_label
  _atom_site_symmetry_multiplicity
  _atom_site_fract_x
  _atom_site_fract_y
  _atom_site_fract_z
  _atom_site_occupancy
  C   C1        1.0  0.005623347855916227  0.0060088484059763175  0.0002896950375709657  1.0000
  O   O1        1.0  0.005623347855916227  0.0060088484059763175  0.00040807347488857  1.0000
  Ti  Ti1       1.0  0.0001897380073130398  0.0003499800672982484  0.9997704067004165  1.0000
  Ti  Ti2       1.0  0.005189738021711331  0.0003499800672982484  0.9995493660177378  1.0000
  Ti  Ti3       1.0  0.007689738323238376  0.005349979733012265  0.9994388457219289  1.0000
  Ti  Ti4       1.0  0.002689738188854323  0.005349979733012265  0.9996598864046076  1.0000
  Al  Al1       1.0  0.0006064047623506328  0.0028499799001552566  0.9996046262111726  1.0000
  Al  Al2       1.0  0.005606404656763161  0.0028499799001552566  0.999383585528494  1.0000
  Al  Al3       1.0  0.0047730716946151235  0.007849979887298103  0.9997151466051473  1.0000
  Al  Al4       1.0  0.009773071349056127  0.007849979887298103  0.9994941059224686  1.0000
  Au  Au1       1.0  0.008106404797575793  0.007849979887298103  0.9997151466051473  1.0000
  Au  Au2       1.0  0.0031064046631917386  0.007849979887298103  0.9994941059224686  1.0000
  Au  Au3       1.0  0.007273071688186546  0.0028499799001552566  0.9996046262111726  1.0000
  Au  Au4       1.0  0.0022730713138309675  0.0028499799001552566  0.999383585528494  1.0000
  Ti  Ti5       1.0  0.0005512903301601336  0.009650019264129785  0.00017967683401862996  1.0000
  Ti  Ti6       1.0  0.005129360918639969  0.0003892917774987558  1.4002482645641766e-06  1.0000
  Ti  Ti7       1.0  0.007689738323238376  0.005349979733012265  0.9998809270872862  1.0000
  Ti  Ti8       1.0  0.0026905572459244363  0.0052953799033685165  9.693187547911716e-05  1.0000
  Al  Al5       1.0  0.0006341468502107778  0.0028386476053233302  5.937472211509633e-05  1.0000
  Al  Al6       1.0  0.005606404656763161  0.0028499799001552566  0.9998256668938513  1.0000
  Al  Al7       1.0  0.005008407097046736  0.007267545704402486  0.00016064240330884187  1.0000
  Al  Al8       1.0  0.009810262702435282  0.007753393095301416  0.9999302532978968  1.0000
  Au  Au5       1.0  0.00823258223138714  0.007557981723793295  0.00015057193820469406  1.0000
  Au  Au6       1.0  0.003231502447898305  0.007747756519337816  0.9999317201117638  1.0000
  Au  Au7       1.0  0.007316226071349109  0.002594276194423361  5.23602502195819e-05  1.0000
  Au  Au8       1.0  0.0022730713138309675  0.0028499799001552566  0.9998256668938513  1.0000
