data_image0
_chemical_formula_structural       COZnAg3ZnAg3ZnAg3ZnAg3ZnAg3ZnAg3ZnAg3ZnAg3
_chemical_formula_sum              "C1 O1 Zn8 Ag24"
_cell_length_a       8.291197776794434
_cell_length_b       8.291197776794434
_cell_length_c       99.0191879272461
_cell_angle_alpha    90.0
_cell_angle_beta     90.0
_cell_angle_gamma    90.0

_space_group_name_H-M_alt    "P 1"
_space_group_IT_number       1

loop_
  _space_group_symop_operation_xyz
  'x, y, z'

loop_
  _atom_site_type_symbol
  _atom_site_label
  _atom_site_symmetry_multiplicity
  _atom_site_fract_x
  _atom_site_fract_y
  _atom_site_fract_z
  _atom_site_occupancy
  C   C1        1.0  0.0006239585476226516  0.0012500010918151598  0.00017492017944402972  1.0000
  O   O1        1.0  0.0006239585476226516  0.0012500010918151598  0.0002961090577805399  1.0000
  Zn  Zn1       1.0  0.0018865970629320318  0.009999998849774976  0.9997984934750113  1.0000
  Ag  Ag1       1.0  0.004371677323405664  0.002500000161750394  0.9997952360201486  1.0000
  Ag  Ag2       1.0  0.004374455386423273  1.0999999266252843e-09  0.0  1.0000
  Ag  Ag3       1.0  0.0018734612460361809  0.0025000012850170195  0.9999999993980495  1.0000
  Zn  Zn2       1.0  0.0018760412771477548  5.999999697158872e-10  0.9993740145709956  1.0000
  Ag  Ag4       1.0  0.0043760409895914985  0.002500000386403719  0.9993740145709956  1.0000
  Ag  Ag5       1.0  0.0043760409895914985  5.999999697158872e-10  0.9995833476557411  1.0000
  Ag  Ag6       1.0  0.0018760412771477548  0.002500000386403719  0.9995833476557411  1.0000
  Zn  Zn3       1.0  0.0018865970629320318  0.004999998975580838  0.9997984934750113  1.0000
  Ag  Ag7       1.0  0.004371677323405664  0.007500000035944533  0.9997952360201486  1.0000
  Ag  Ag8       1.0  0.004374455386423273  0.005000000772807438  0.0  1.0000
  Ag  Ag9       1.0  0.0018734612460361809  0.007500000934557833  0.9999999993980495  1.0000
  Zn  Zn4       1.0  0.0018760412771477548  0.005000000323500788  0.9993740145709956  1.0000
  Ag  Ag10      1.0  0.0043760409895914985  0.007500000035944533  0.9993740145709956  1.0000
  Ag  Ag11      1.0  0.0043760409895914985  0.005000000323500788  0.9995833476557411  1.0000
  Ag  Ag12      1.0  0.0018760412771477548  0.007500000035944533  0.9995833476557411  1.0000
  Zn  Zn5       1.0  0.006886596712472845  0.009999998849774976  0.9997984934750113  1.0000
  Ag  Ag13      1.0  0.009371676748293152  0.002500000161750394  0.9997952360201486  1.0000
  Ag  Ag14      1.0  0.009374455260617412  1.0999999266252843e-09  0.0  1.0000
  Ag  Ag15      1.0  0.0068734612325569815  0.0025000012850170195  0.9999999993980495  1.0000
  Zn  Zn6       1.0  0.006876041151341893  5.999999697158872e-10  0.9993740145709956  1.0000
  Ag  Ag16      1.0  0.009376041313092286  0.002500000386403719  0.9993740145709956  1.0000
  Ag  Ag17      1.0  0.009376041313092286  5.999999697158872e-10  0.9995833476557411  1.0000
  Ag  Ag18      1.0  0.006876041151341893  0.002500000386403719  0.9995833476557411  1.0000
  Zn  Zn7       1.0  0.006886596712472845  0.004999998975580838  0.9997984934750113  1.0000
  Ag  Ag19      1.0  0.009371676748293152  0.007500000035944533  0.9997952360201486  1.0000
  Ag  Ag20      1.0  0.009374455260617412  0.005000000772807438  0.0  1.0000
  Ag  Ag21      1.0  0.0068734612325569815  0.007500000934557833  0.9999999993980495  1.0000
  Zn  Zn8       1.0  0.006876041151341893  0.005000000323500788  0.9993740145709956  1.0000
  Ag  Ag22      1.0  0.009376041313092286  0.007500000035944533  0.9993740145709956  1.0000
  Ag  Ag23      1.0  0.009376041313092286  0.005000000323500788  0.9995833476557411  1.0000
  Ag  Ag24      1.0  0.006876041151341893  0.007500000035944533  0.9995833476557411  1.0000
