data_image0
_chemical_formula_structural       COAl30W6
_chemical_formula_sum              "C1 O1 Al30 W6"
_cell_length_a       4.935080064415728
_cell_length_b       13.297532989902857
_cell_length_c       110.74493408203125
_cell_angle_alpha    76.90261510283555
_cell_angle_beta     104.01894163183053
_cell_angle_gamma    68.21483072069962

_space_group_name_H-M_alt    "P 1"
_space_group_IT_number       1

loop_
  _space_group_symop_operation_xyz
  'x, y, z'

loop_
  _atom_site_type_symbol
  _atom_site_label
  _atom_site_symmetry_multiplicity
  _atom_site_fract_x
  _atom_site_fract_y
  _atom_site_fract_z
  _atom_site_occupancy
  C   C1        1.0  0.005107272802590101  0.00020617219869880442  7.202530287205291e-06  1.0000
  O   O1        1.0  0.005107272802590101  0.00020617219869880442  0.00011555931259529399  1.0000
  Al  Al1       1.0  0.009985997428229377  0.00925987969455877  0.9997339436226056  1.0000
  Al  Al2       1.0  2.8576792733221917e-06  0.0025716056466589927  0.9994187055905976  1.0000
  Al  Al3       1.0  2.857487876394539e-06  0.005904939149703209  0.9991121080717728  1.0000
  Al  Al4       1.0  2.8569029517938134e-06  0.007571606142902207  0.9994187056010077  1.0000
  Al  Al5       1.0  2.8576777177495366e-06  0.0009049388951368845  0.9991121080484557  1.0000
  Al  Al6       1.0  0.009887943711027688  0.004330587895031253  0.9997276683684855  1.0000
  Al  Al7       1.0  0.006573224431474273  0.008232467410148476  0.9998469565213793  1.0000
  Al  Al8       1.0  0.0066695243649935905  0.001460494532683563  0.9995209047328901  1.0000
  Al  Al9       1.0  0.006669523784580515  0.004793828035727779  0.9992143072098658  1.0000
  Al  Al10      1.0  0.003336190636228456  0.005349383592715494  0.9996231042104314  1.0000
  Al  Al11      1.0  0.003336189859336673  0.008682717256877637  0.9993165066809023  1.0000
  Al  Al12      1.0  0.0028090590559100375  0.002351609429140779  0.999920850855526  1.0000
  Al  Al13      1.0  0.0033780433431862583  0.005613210653280244  0.9993688892203165  1.0000
  Al  Al14      1.0  0.0033780429592518936  0.008946543995206533  0.9990622917037971  1.0000
  Al  Al15      1.0  0.0032405643677973035  0.002322105997736244  0.9996691178782469  1.0000
  Al  Al16      1.0  0.0033780431718428484  0.00840493899503  0.9995720043406958  1.0000
  Al  Al17      1.0  0.003378043939711578  0.0017382723111774203  0.9992654067727257  1.0000
  Al  Al18      1.0  0.004596236132050931  0.004901938809092178  0.999894120615141  1.0000
  Al  Al19      1.0  0.009997142192991823  0.007308835049229801  0.9996694974613249  1.0000
  Al  Al20      1.0  2.857613678675165e-06  0.0006132102375959922  0.9993688892507789  1.0000
  Al  Al21      1.0  2.8573746400473753e-06  0.003946543660081245  0.9990622917336317  1.0000
  Al  Al22      1.0  2.857207014815347e-06  0.004530001297398883  0.9994685219180343  1.0000
  Al  Al23      1.0  2.857601112742427e-06  0.007863334639325172  0.9991619249481293  1.0000
  Al  Al24      1.0  0.0004302043004327161  0.001136091965174275  0.9997887474216438  1.0000
  Al  Al25      1.0  0.006627670673064576  0.006738272646302708  0.9992654071053269  1.0000
  Al  Al26      1.0  0.0068597405987143685  0.00032894830841695725  0.9998813043347636  1.0000
  Al  Al27      1.0  0.006627671449956358  0.003404938982140565  0.9995720046348561  1.0000
  Al  Al28      1.0  0.007139428388183892  0.006299864967194431  0.9997926102140978  1.0000
  Al  Al29      1.0  0.006627671271870915  0.009530001632524172  0.9994685222164842  1.0000
  Al  Al30      1.0  0.0066276712695898955  0.002863334304199885  0.999161924657736  1.0000
  W   W1        1.0  0.006669523199655916  0.006460495028926778  0.9995209047391007  1.0000
  W   W2        1.0  0.006669524371786135  0.009793828370853066  0.999214307239379  1.0000
  W   W3        1.0  0.006499086993861794  0.003118451651876883  0.9998122540166863  1.0000
  W   W4        1.0  0.002970803435776026  0.007046750317925627  0.999901289576519  1.0000
  W   W5        1.0  0.0033361910195925655  0.00034938341870813304  0.9996231041870116  1.0000
  W   W6        1.0  0.0033361908281956372  0.0036827169217523493  0.9993165066681867  1.0000
