data_image0
_chemical_formula_structural       COPt8W4Pt8W4Pt8W4
_chemical_formula_sum              "C1 O1 Pt24 W12"
_cell_length_a       8.838398961768712
_cell_length_b       8.428502126314116
_cell_length_c       100.90975952148438
_cell_angle_alpha    70.52533445658345
_cell_angle_beta     71.4623074946777
_cell_angle_gamma    83.91555191720218

_space_group_name_H-M_alt    "P 1"
_space_group_IT_number       1

loop_
  _space_group_symop_operation_xyz
  'x, y, z'

loop_
  _atom_site_type_symbol
  _atom_site_label
  _atom_site_symmetry_multiplicity
  _atom_site_fract_x
  _atom_site_fract_y
  _atom_site_fract_z
  _atom_site_occupancy
  C   C1        1.0  0.0035068578836313117  0.003057112679127494  0.9998322806546881  1.0000
  O   O1        1.0  0.0035068578836313117  0.003057112679127494  0.9999511990266632  1.0000
  Pt  Pt1       1.0  0.0024448627773511946  0.0037499999718715073  0.9995490306728146  1.0000
  Pt  Pt2       1.0  0.0024448627773511946  0.008749999699962742  0.9996882628315223  1.0000
  Pt  Pt3       1.0  0.004185046087635944  0.0012499999906238357  0.9997094210674796  1.0000
  Pt  Pt4       1.0  0.004185046087635944  0.00624999971871507  0.9995701888294076  1.0000
  Pt  Pt5       1.0  0.007444863124104204  0.0012499999906238357  0.9996186467382047  1.0000
  Pt  Pt6       1.0  0.007444863124104204  0.00624999971871507  0.9994794145001327  1.0000
  Pt  Pt7       1.0  0.009185046212111383  0.0037499999718715073  0.9996398048944599  1.0000
  Pt  Pt8       1.0  0.009185046212111383  0.008749999699962742  0.999500572656388  1.0000
  W   W1        1.0  0.0008149542591170648  0.0012499999906238357  0.9995248017613619  1.0000
  W   W2        1.0  0.0008149542591170648  0.00624999971871507  0.9996640339200696  1.0000
  W   W3        1.0  0.005814954605870074  0.0037499999718715073  0.9997336499789323  1.0000
  W   W4        1.0  0.005814954605870074  0.008749999699962742  0.9995944177408603  1.0000
  Pt  Pt9       1.0  0.0024448627773511946  0.0037499999718715073  0.9992705656853622  1.0000
  Pt  Pt10      1.0  0.0024448627773511946  0.008749999699962742  0.9994097984347426  1.0000
  Pt  Pt11      1.0  0.004185046087635944  0.0012499999906238357  0.9994309566706999  1.0000
  Pt  Pt12      1.0  0.004185046087635944  0.00624999971871507  0.9992917244326279  1.0000
  Pt  Pt13      1.0  0.007444863124104204  0.0012499999906238357  0.999340182341425  1.0000
  Pt  Pt14      1.0  0.007444863124104204  0.00624999971871507  0.999200950103353  1.0000
  Pt  Pt15      1.0  0.009185046212111383  0.0037499999718715073  0.9993613404976803  1.0000
  Pt  Pt16      1.0  0.009185046212111383  0.008749999699962742  0.9992221082596083  1.0000
  W   W5        1.0  0.0008149542591170648  0.0012499999906238357  0.9992463370692459  1.0000
  W   W6        1.0  0.0008149542591170648  0.00624999971871507  0.9993855695232899  1.0000
  W   W7        1.0  0.005814954605870074  0.0037499999718715073  0.9994551855821526  1.0000
  W   W8        1.0  0.005814954605870074  0.008749999699962742  0.9993159533440806  1.0000
  Pt  Pt17      1.0  0.0024448627773511946  0.0037499999718715073  0.9989921015839189  1.0000
  Pt  Pt18      1.0  0.0024448627773511946  0.008749999699962742  0.9991313334472903  1.0000
  Pt  Pt19      1.0  0.004185046087635944  0.0012499999906238357  0.9991524919785839  1.0000
  Pt  Pt20      1.0  0.004185046087635944  0.00624999971871507  0.9990132597405119  1.0000
  Pt  Pt21      1.0  0.007444863124104204  0.0012499999906238357  0.999061717649309  1.0000
  Pt  Pt22      1.0  0.007444863124104204  0.00624999971871507  0.998922485411237  1.0000
  Pt  Pt23      1.0  0.009185046212111383  0.0037499999718715073  0.9990828755102279  1.0000
  Pt  Pt24      1.0  0.009185046212111383  0.008749999699962742  0.9989436432721559  1.0000
  W   W9        1.0  0.0008149542591170648  0.0012499999906238357  0.9989678726724662  1.0000
  W   W10       1.0  0.0008149542591170648  0.00624999971871507  0.9991071048311739  1.0000
  W   W11       1.0  0.005814954605870074  0.0037499999718715073  0.9991767205947002  1.0000
  W   W12       1.0  0.005814954605870074  0.008749999699962742  0.9990374883566283  1.0000
