data_image0
_chemical_formula_structural       COSb8
_chemical_formula_sum              "C1 O1 Sb8"
_cell_length_a       8.841442108154297
_cell_length_b       4.616843065072497
_cell_length_c       99.11063385009766
_cell_angle_alpha    92.65535432508945
_cell_angle_beta     90.0
_cell_angle_gamma    118.60445741431364

_space_group_name_H-M_alt    "P 1"
_space_group_IT_number       1

loop_
  _space_group_symop_operation_xyz
  'x, y, z'

loop_
  _atom_site_type_symbol
  _atom_site_label
  _atom_site_symmetry_multiplicity
  _atom_site_fract_x
  _atom_site_fract_y
  _atom_site_fract_z
  _atom_site_occupancy
  C   C1        1.0  0.0019223413996558249  0.002246772898990555  0.0001865578438480942  1.0000
  O   O1        1.0  0.0019223413996558249  0.002246772898990555  0.00030763490543610504  1.0000
  Sb  Sb1       1.0  0.00019922392510316202  0.005354303236732652  1.1555059716670113e-05  1.0000
  Sb  Sb2       1.0  0.0017671525689622136  0.0016076212673638314  0.9998619999231111  1.0000
  Sb  Sb3       1.0  0.0034697467706118986  0.008392378240249125  0.9996372167353169  1.0000
  Sb  Sb4       1.0  0.004800776297317867  0.0037164948470876664  0.9994412814639079  1.0000
  Sb  Sb5       1.0  0.005199224148415585  0.005354303236732652  1.1555059716670113e-05  1.0000
  Sb  Sb6       1.0  0.006767152897610685  0.0016076212673638314  0.9998619999231111  1.0000
  Sb  Sb7       1.0  0.008469746993924322  0.008392378240249125  0.9996372167353169  1.0000
  Sb  Sb8       1.0  0.009800775993950047  0.0037164948470876664  0.9994412814639079  1.0000
