data_image0
_chemical_formula_structural       COSn6Pt4Sn6Pt4Sn6Pt4Sn6Pt4
_chemical_formula_sum              "C1 O1 Sn24 Pt16"
_cell_length_a       8.886270448173876
_cell_length_b       13.280155181884766
_cell_length_c       34.454917907714844
_cell_angle_alpha    90.0
_cell_angle_beta     59.99999972118939
_cell_angle_gamma    90.0

_space_group_name_H-M_alt    "P 1"
_space_group_IT_number       1

loop_
  _space_group_symop_operation_xyz
  'x, y, z'

loop_
  _atom_site_type_symbol
  _atom_site_label
  _atom_site_symmetry_multiplicity
  _atom_site_fract_x
  _atom_site_fract_y
  _atom_site_fract_z
  _atom_site_occupancy
  C   C1        1.0  0.002414300638253194  0.0025023290422320544  0.9993831410143736  1.0000
  O   O1        1.0  0.002414300638253194  0.0025023290422320544  0.9997314220507272  1.0000
  Sn  Sn1       1.0  0.0016723788502157613  0.0007064971870661659  0.9984759994116879  1.0000
  Sn  Sn2       1.0  0.003293894318903103  0.009252559778630936  0.9989304608856843  1.0000
  Sn  Sn3       1.0  0.0016723767929097532  0.00429816251036247  0.9984760005419535  1.0000
  Sn  Sn4       1.0  0.0032938909303990896  0.005752102479904852  0.9989304621876146  1.0000
  Sn  Sn5       1.0  0.00010353010522732006  0.0025023296032631944  0.9979975711067769  1.0000
  Sn  Sn6       1.0  0.009979480265290665  0.007502328324112196  0.9980593438467259  1.0000
  Pt  Pt1       1.0  0.0035396325025273978  0.0014338312109181222  0.9988026722889307  1.0000
  Pt  Pt2       1.0  0.0017029358953361668  0.00642779884701548  0.998460435950089  1.0000
  Pt  Pt3       1.0  0.003539631776419395  0.0035708265930304173  0.9988026728150489  1.0000
  Pt  Pt4       1.0  0.001702936984498171  0.008576858923271192  0.9984604358096361  1.0000
  Sn  Sn7       1.0  0.0016871862497001076  0.0007111555688767787  0.9971804255891223  1.0000
  Sn  Sn8       1.0  0.003353852929275361  0.009293502709143074  0.9976102753694402  1.0000
  Sn  Sn9       1.0  0.0016871862497001076  0.004293502866231793  0.9971804255891223  1.0000
  Sn  Sn10      1.0  0.003353852929275361  0.005711155622174738  0.9976102753694402  1.0000
  Sn  Sn11      1.0  2.0519500161322804e-05  0.0025023290422320544  0.9967505753853437  1.0000
  Sn  Sn12      1.0  2.0519500161322804e-05  0.007502328885143336  0.9967505753853437  1.0000
  Pt  Pt5       1.0  0.003353852929275361  0.001435847697091945  0.9976102753694402  1.0000
  Pt  Pt6       1.0  0.0016871862497001076  0.006435847399745441  0.9971804255891223  1.0000
  Pt  Pt7       1.0  0.003353852929275361  0.0035688105276299492  0.9976102753694402  1.0000
  Pt  Pt8       1.0  0.0016871862497001076  0.008568810370541231  0.9971804255891223  1.0000
  Sn  Sn13      1.0  0.00667237876792352  0.0007064971870661659  0.9984759995087964  1.0000
  Sn  Sn14      1.0  0.008293894115592861  0.009252559778630936  0.9989304605659158  1.0000
  Sn  Sn15      1.0  0.006672376831635513  0.00429816251036247  0.9984760006234562  1.0000
  Sn  Sn16      1.0  0.00829389121116085  0.005752102479904852  0.9989304618054227  1.0000
  Sn  Sn17      1.0  0.005103529969989704  0.0025023296032631944  0.9979975712107131  1.0000
  Sn  Sn18      1.0  0.004979480710636907  0.007502328324112196  0.9980593437027997  1.0000
  Pt  Pt9       1.0  0.008539632299217156  0.0014338312109181222  0.9988026719691623  1.0000
  Pt  Pt10      1.0  0.006702935813043927  0.00642779884701548  0.9984604360471976  1.0000
  Pt  Pt11      1.0  0.008539632299217156  0.0035708265930304173  0.9988026724016452  1.0000
  Pt  Pt12      1.0  0.006702937265259932  0.008576858923271192  0.9984604358599269  1.0000
  Sn  Sn19      1.0  0.006687186530461868  0.0007111555688767787  0.9971804256394133  1.0000
  Sn  Sn20      1.0  0.008353853210037121  0.009293502709143074  0.9976102754197311  1.0000
  Sn  Sn21      1.0  0.006687186530461868  0.004293502866231793  0.9971804256394133  1.0000
  Sn  Sn22      1.0  0.008353853210037121  0.005711155622174738  0.9976102754197311  1.0000
  Sn  Sn23      1.0  0.005020519850886615  0.0025023290422320544  0.9967505754266125  1.0000
  Sn  Sn24      1.0  0.005020519850886615  0.007502328885143336  0.9967505754266125  1.0000
  Pt  Pt13      1.0  0.008353853210037121  0.001435847697091945  0.9976102754197311  1.0000
  Pt  Pt14      1.0  0.006687186530461868  0.006435847399745441  0.9971804256394133  1.0000
  Pt  Pt15      1.0  0.008353853210037121  0.0035688105276299492  0.9976102754197311  1.0000
  Pt  Pt16      1.0  0.006687186530461868  0.008568810370541231  0.9971804256394133  1.0000
