data_image0
_chemical_formula_structural       COIr20V20
_chemical_formula_sum              "C1 O1 Ir20 V20"
_cell_length_a       5.264407898725613
_cell_length_b       9.694071035587967
_cell_length_c       103.2607192993164
_cell_angle_alpha    84.6747708685261
_cell_angle_beta     85.57678011002335
_cell_angle_gamma    86.80763586429504

_space_group_name_H-M_alt    "P 1"
_space_group_IT_number       1

loop_
  _space_group_symop_operation_xyz
  'x, y, z'

loop_
  _atom_site_type_symbol
  _atom_site_label
  _atom_site_symmetry_multiplicity
  _atom_site_fract_x
  _atom_site_fract_y
  _atom_site_fract_z
  _atom_site_occupancy
  C   C1        1.0  0.00047345738710881076  0.006473453276789307  6.225193991258598e-05  1.0000
  O   O1        1.0  0.00047345738710881076  0.006473453276789307  0.0001784628708466542  1.0000
  Ir  Ir1       1.0  0.00914447787385394  0.0005101764390876452  0.9992317917485445  1.0000
  Ir  Ir2       1.0  0.009811144495549724  0.0071768432480831925  0.9990170557315778  1.0000
  Ir  Ir3       1.0  0.00847781139445575  0.0038435096262279655  0.9994465282498541  1.0000
  Ir  Ir4       1.0  0.007054979312836298  0.0005355745608911113  0.9998734184154617  1.0000
  Ir  Ir5       1.0  0.007854442728008162  0.0071575303138412556  0.9996618203763632  1.0000
  Ir  Ir6       1.0  0.004006706797483906  0.008640088213260743  0.9994727372295636  1.0000
  Ir  Ir7       1.0  0.00467337324648554  0.005306755364232017  0.9992580010140399  1.0000
  Ir  Ir8       1.0  0.0033337643131937764  0.0019400290685395464  0.9996894033631702  1.0000
  Ir  Ir9       1.0  0.00534004010247107  0.001973421935583415  0.9990432648019663  1.0000
  Ir  Ir10      1.0  0.0021364289471778627  0.005486247023814234  0.9998910018663751  1.0000
  Ir  Ir11      1.0  0.0021956213216188223  0.002813298669818447  0.9992571579258862  1.0000
  Ir  Ir12      1.0  0.002862287973711162  0.0094799651407024  0.9990424216231336  1.0000
  Ir  Ir13      1.0  0.0015289544830027531  0.0061466319052604235  0.9994718938509627  1.0000
  Ir  Ir14      1.0  0.009854746079933491  0.0029512387329933653  0.9998887078652239  1.0000
  Ir  Ir15      1.0  0.0008824986160709822  0.009452926259937188  0.9996898723162979  1.0000
  Ir  Ir16      1.0  0.007333392925558521  0.004683386553669623  0.9990162126420288  1.0000
  Ir  Ir17      1.0  0.004511357472676115  0.008105491664305733  0.999868581759606  1.0000
  Ir  Ir18      1.0  0.006666725697328016  0.00801672017552485  0.9992309488538827  1.0000
  Ir  Ir19      1.0  0.0053205205475437296  0.004634569035713339  0.9996583125115549  1.0000
  Ir  Ir20      1.0  0.006000059088659327  0.0013500532216243334  0.9994456848720608  1.0000
  V   V1        1.0  0.009108493985177112  0.008849514920917963  0.9994457543469316  1.0000
  V   V2        1.0  0.009775160434178748  0.0055161820718892364  0.999231018131408  1.0000
  V   V3        1.0  0.008413794867395366  0.002165228778654181  0.999663796650671  1.0000
  V   V4        1.0  0.00044182694733508964  0.0021828484500340094  0.9990162817722872  1.0000
  V   V5        1.0  0.007268883042175812  0.005543596159920333  0.99987899775242  1.0000
  V   V6        1.0  0.003936012802502133  0.00026937374834565665  0.9992628173732504  1.0000
  V   V7        1.0  0.004602679424197918  0.006936040557341204  0.9990480810676714  1.0000
  V   V8        1.0  0.003269345968228429  0.003602706935485977  0.999477553587343  1.0000
  V   V9        1.0  0.002015421630911857  0.0004195814661793565  0.9999010996171557  1.0000
  V   V10       1.0  0.0027475372961413397  0.006919483522399257  0.9996931635382752  1.0000
  V   V11       1.0  0.0008982722558416349  0.0011406265139671141  0.9994726677532974  1.0000
  V   V12       1.0  0.0015649388645103239  0.00780729346786763  0.9992579317351195  1.0000
  V   V13       1.0  0.00014525395800690381  0.004483952106247742  0.9996878027537994  1.0000
  V   V14       1.0  0.0022316057378653133  0.004473959846012403  0.9990431955246608  1.0000
  V   V15       1.0  0.009288750805154868  0.007780155665310383  0.9998956903767838  1.0000
  V   V16       1.0  0.006115429633515496  0.009730626006281929  0.9996608455669623  1.0000
  V   V17       1.0  0.006737419909230074  0.006387434596002412  0.9994408685134738  1.0000
  V   V18       1.0  0.005112165157961083  0.0031141882345437667  0.9998778221493252  1.0000
  V   V19       1.0  0.007404086392970629  0.0030541013605604353  0.9992261325897928  1.0000
  V   V20       1.0  0.008070753045062967  0.009720767831444389  0.99901139628704  1.0000
