data_image0
_chemical_formula_structural       HAlCo2Si2AlCo2Si2AlCo2Si2AlCo2Si2AlCo2Si2AlCo2Si2
_chemical_formula_sum              "H1 Al6 Co12 Si12"
_cell_length_a       7.902618371567466
_cell_length_b       4.655947208404541
_cell_length_c       34.43821716308594
_cell_angle_alpha    90.0
_cell_angle_beta     120.00000015335397
_cell_angle_gamma    90.0

_space_group_name_H-M_alt    "P 1"
_space_group_IT_number       1

loop_
  _space_group_symop_operation_xyz
  'x, y, z'

loop_
  _atom_site_type_symbol
  _atom_site_label
  _atom_site_symmetry_multiplicity
  _atom_site_fract_x
  _atom_site_fract_y
  _atom_site_fract_z
  _atom_site_occupancy
  H   H1        1.0  0.002785100833334959  0.003553028306817671  0.0006099266091764779  1.0000
  Al  Al1       1.0  0.00999549355302916  0.00995662890408449  0.9994747915771078  1.0000
  Co  Co1       1.0  0.003352262160435104  0.0017042652253956765  0.9998680024641379  1.0000
  Co  Co2       1.0  0.0016153405641470499  0.008452557096417956  0.00021811272514749862  1.0000
  Si  Si1       1.0  0.0015196974466512485  0.003553028306817671  0.0001743642674638574  1.0000
  Si  Si2       1.0  0.003384540647753667  0.0066550361400782385  0.9998826128561876  1.0000
  Al  Al2       1.0  4.506350204270515e-06  4.337069985889311e-05  0.9983315403963036  1.0000
  Co  Co3       1.0  0.00333783971861398  0.0016703683798280438  0.998713994306637  1.0000
  Co  Co4       1.0  0.0016711730936789155  0.008416372723847423  0.9990964484946574  1.0000
  Si  Si3       1.0  0.0016711730936789155  0.003521955864999684  0.9990964484946574  1.0000
  Si  Si4       1.0  0.00333783971861398  0.006564785638732971  0.998713994306637  1.0000
  Al  Al3       1.0  4.506350204270515e-06  4.337069985889311e-05  0.997184178772569  1.0000
  Co  Co5       1.0  0.00333783971861398  0.0016703683798280438  0.9975666326829025  1.0000
  Co  Co6       1.0  0.0016711730936789155  0.008416372723847423  0.9979490866545765  1.0000
  Si  Si5       1.0  0.0016711730936789155  0.003521955864999684  0.9979490866545765  1.0000
  Si  Si6       1.0  0.00333783971861398  0.006564785638732971  0.9975666326829025  1.0000
  Al  Al4       1.0  0.004995493814305279  0.00995662890408449  0.9994747918840089  1.0000
  Co  Co7       1.0  0.008352262171321609  0.0017042652253956765  0.9998680021884636  1.0000
  Co  Co8       1.0  0.0066153404389522425  0.008452557096417956  0.0002181128665524561  1.0000
  Si  Si7       1.0  0.006519697593619067  0.003553028306817671  0.0001743644400957126  1.0000
  Si  Si8       1.0  0.008384540658640171  0.0066550361400782385  0.9998826125805135  1.0000
  Al  Al5       1.0  0.005004506207467732  4.337069985889311e-05  0.9983315405356958  1.0000
  Co  Co9       1.0  0.008337839729500486  0.0016703683798280438  0.9987139944636554  1.0000
  Co  Co10      1.0  0.006671172968484108  0.008416372723847423  0.9990964482033697  1.0000
  Si  Si9       1.0  0.006671172968484108  0.003521955864999684  0.9990964482033697  1.0000
  Si  Si10      1.0  0.008337839729500486  0.006564785638732971  0.9987139944636554  1.0000
  Al  Al6       1.0  0.005004506207467732  4.337069985889311e-05  0.997184178695615  1.0000
  Co  Co11      1.0  0.008337839729500486  0.0016703683798280438  0.9975666326235746  1.0000
  Co  Co12      1.0  0.006671172968484108  0.008416372723847423  0.9979490865796352  1.0000
  Si  Si11      1.0  0.006671172968484108  0.003521955864999684  0.9979490865796352  1.0000
  Si  Si12      1.0  0.008337839729500486  0.006564785638732971  0.9975666326235746  1.0000
