data_image0
_chemical_formula_structural       COCo20Si20
_chemical_formula_sum              "C1 O1 Co20 Si20"
_cell_length_a       9.961552463471932
_cell_length_b       6.300238609313965
_cell_length_c       100.86473846435547
_cell_angle_alpha    90.0
_cell_angle_beta     104.96321737906011
_cell_angle_gamma    71.56505224974934

_space_group_name_H-M_alt    "P 1"
_space_group_IT_number       1

loop_
  _space_group_symop_operation_xyz
  'x, y, z'

loop_
  _atom_site_type_symbol
  _atom_site_label
  _atom_site_symmetry_multiplicity
  _atom_site_fract_x
  _atom_site_fract_y
  _atom_site_fract_z
  _atom_site_occupancy
  C   C1        1.0  0.008367765650905268  0.002531005507487891  0.0002133789322038836  1.0000
  O   O1        1.0  0.008367765650905268  0.002531005507487891  0.0003323503834899616  1.0000
  Co  Co1       1.0  0.003396190960631935  0.0027177945483219386  0.999535879475244  1.0000
  Co  Co2       1.0  0.007396191070420854  0.0007177944934274797  0.9993828787441669  1.0000
  Co  Co3       1.0  0.00939619040841006  0.0047177947534776535  0.999688880112308  1.0000
  Co  Co4       1.0  0.0013961911105675486  0.008717794402398909  0.9999948815979668  1.0000
  Co  Co5       1.0  0.005396190913111359  0.006717794501127004  0.9998418805635866  1.0000
  Co  Co6       1.0  0.006396190991766106  0.0008157906210217886  0.9996123798016109  1.0000
  Co  Co7       1.0  0.00039619113432783694  0.0088157904787857  0.9994593791541004  1.0000
  Co  Co8       1.0  0.00239619108680726  0.0028157905735012117  0.999765380242443  1.0000
  Co  Co9       1.0  0.00439619083445661  0.006815790628721313  7.138191649880469e-05  1.0000
  Co  Co10      1.0  0.008396191149075602  0.004815790471411817  0.9999183808951766  1.0000
  Co  Co11      1.0  0.005137393441824799  0.00539619144646594  0.9995802803274773  1.0000
  Co  Co12      1.0  0.009137393346783644  0.0033961914939865155  0.9994272795911768  1.0000
  Co  Co13      1.0  0.0011373935368659523  0.007396191398945361  0.9997332807683095  1.0000
  Co  Co14      1.0  0.0031373934893453755  0.0013961911980141107  3.92824475883841e-05  1.0000
  Co  Co15      1.0  0.007137393189474149  0.009396192092979566  0.9998862814105967  1.0000
  Co  Co16      1.0  0.004976591593244207  0.002976592110587083  0.9999381792244115  1.0000
  Co  Co17      1.0  0.008976591907863199  0.0009765919532775875  0.9997851784985575  1.0000
  Co  Co18      1.0  0.0009765918931154338  0.0049765919606514705  9.117967046686438e-05  1.0000
  Co  Co19      1.0  0.002976591845594857  0.008976591913456535  0.9996321778458239  1.0000
  Co  Co20      1.0  0.006976591750553703  0.006976591960977113  0.9994791771095236  1.0000
  Si  Si1       1.0  0.006603808392105034  0.003094941540594391  0.9997956892243578  1.0000
  Si  Si2       1.0  0.0006038088419118746  0.001094941386646194  0.9996426885846822  1.0000
  Si  Si3       1.0  0.0026038086919762614  0.005094941390658777  0.9999486899658814  1.0000
  Si  Si4       1.0  0.004603808644455684  0.009094941343463843  0.9994896878457703  1.0000
  Si  Si5       1.0  0.00860380854941453  0.00709494139098442  0.9993366871094699  1.0000
  Si  Si6       1.0  0.0036038085658009365  0.005231026055040148  0.9997191889032142  1.0000
  Si  Si7       1.0  0.007603808470759783  0.0032310261025607252  0.9995661881669139  1.0000
  Si  Si8       1.0  0.009603808628069279  0.00723102654424428  0.9998721895559478  1.0000
  Si  Si9       1.0  0.0016038088181515862  0.0012310258519966655  0.9994131875246267  1.0000
  Si  Si10      1.0  0.005603808723110432  0.009231026496723704  2.5190292248193413e-05  1.0000
  Si  Si11      1.0  0.00472215782182665  0.0006038090317734731  0.999747706930611  1.0000
  Si  Si12      1.0  0.008722157726785496  0.008603809824323893  0.9995947061943106  1.0000
  Si  Si13      1.0  0.000722158121697877  0.00260380888183786  0.9999007076721346  1.0000
  Si  Si14      1.0  0.0027221580741773003  0.006603809130289688  0.9994417055520234  1.0000
  Si  Si15      1.0  0.006722157979136147  0.004603809177810265  5.37083196449045e-05  1.0000
  Si  Si16      1.0  0.004976591593244207  0.002976592110587083  0.9994041337548911  1.0000
  Si  Si17      1.0  0.008976591907863199  0.0009765919532775875  1.6136237490763786e-05  1.0000
  Si  Si18      1.0  0.0009765918931154338  0.0049765919606514705  0.9995571344964146  1.0000
  Si  Si19      1.0  0.002976591845594857  0.008976591913456535  0.9998631355847571  1.0000
  Si  Si20      1.0  0.006976591750553703  0.006976591960977113  0.999710135143925  1.0000
