data_image0
_chemical_formula_structural       COAl8Pt16Al8Pt16
_chemical_formula_sum              "C1 O1 Al16 Pt32"
_cell_length_a       9.718570301804435
_cell_length_b       8.269490242004395
_cell_length_c       108.87428283691406
_cell_angle_alpha    90.0
_cell_angle_beta     111.13461131590041
_cell_angle_gamma    90.0

_space_group_name_H-M_alt    "P 1"
_space_group_IT_number       1

loop_
  _space_group_symop_operation_xyz
  'x, y, z'

loop_
  _atom_site_type_symbol
  _atom_site_label
  _atom_site_symmetry_multiplicity
  _atom_site_fract_x
  _atom_site_fract_y
  _atom_site_fract_z
  _atom_site_occupancy
  C   C1        1.0  0.008649810303713949  0.0037500002522722086  0.00016817601229790805  1.0000
  O   O1        1.0  0.008649810303713949  0.0037500002522722086  0.0002783951017468852  1.0000
  Al  Al1       1.0  0.0035273527163148907  0.0012500000090097216  0.9991866062634046  1.0000
  Al  Al2       1.0  0.008527352584807843  0.0012500000090097216  0.9996329273010406  1.0000
  Al  Al3       1.0  0.006472647431630538  0.0037500002522722086  0.9992646441512973  1.0000
  Al  Al4       1.0  0.0014726472549179428  0.0037500002522722086  0.9997109648590006  1.0000
  Al  Al5       1.0  0.004562881949069109  0.0012500000090097216  0.9995404911880558  1.0000
  Al  Al6       1.0  0.009562881817562062  0.0012500000090097216  0.9999868119519602  1.0000
  Al  Al7       1.0  0.00543711819887632  0.0037500002522722086  0.9998034004344425  1.0000
  Al  Al8       1.0  0.0004371181249036054  0.0037500002522722086  0.9993570796639246  1.0000
  Pt  Pt1       1.0  0.008734821390810119  0.0012500000090097216  0.9992997495128041  1.0000
  Pt  Pt2       1.0  0.003734821522317167  0.0012500000090097216  0.9997460705041589  1.0000
  Pt  Pt3       1.0  0.0012651785516555475  0.0037500002522722086  4.4142650543829464e-05  1.0000
  Pt  Pt4       1.0  0.006265178625628262  0.0037500002522722086  0.9995978216658024  1.0000
  Pt  Pt5       1.0  0.005830393312461587  0.0012500000090097216  5.331883402987733e-06  1.0000
  Pt  Pt6       1.0  0.000830393392598694  0.0012500000090097216  0.9995590111178452  1.0000
  Pt  Pt7       1.0  0.004169606424524318  0.0037500002522722086  0.9993385602733316  1.0000
  Pt  Pt8       1.0  0.009169606703976794  0.0037500002522722086  0.9997848810504628  1.0000
  Pt  Pt9       1.0  0.006351611221717305  0.0012500000090097216  0.9994076457838295  1.0000
  Pt  Pt10      1.0  0.001351611353224353  0.0012500000090097216  0.9998539667751842  1.0000
  Pt  Pt11      1.0  0.0036483889262281235  0.0037500002522722086  0.9999362463861319  1.0000
  Pt  Pt12      1.0  0.008648388383761552  0.0037500002522722086  0.9994899253815502  1.0000
  Pt  Pt13      1.0  0.002039123828311658  0.0012500000090097216  0.9993462755962245  1.0000
  Pt  Pt14      1.0  0.007039123491324848  0.0012500000090097216  0.9997925963535156  1.0000
  Pt  Pt15      1.0  0.00796087611415401  0.0037500002522722086  0.9999976165671235  1.0000
  Pt  Pt16      1.0  0.0029608762456610565  0.0037500002522722086  0.999551295803219  1.0000
  Al  Al9       1.0  0.0035273527163148907  0.006250000270291651  0.9991866062634046  1.0000
  Al  Al10      1.0  0.008527352584807843  0.006250000270291651  0.9996329273010406  1.0000
  Al  Al11      1.0  0.006472647431630538  0.008750000288311095  0.9992646441512973  1.0000
  Al  Al12      1.0  0.0014726472549179428  0.008750000288311095  0.9997109648590006  1.0000
  Al  Al13      1.0  0.004562881949069109  0.006250000270291651  0.9995404911880558  1.0000
  Al  Al14      1.0  0.009562881817562062  0.006250000270291651  0.9999868119519602  1.0000
  Al  Al15      1.0  0.00543711819887632  0.008750000288311095  0.9998034004344425  1.0000
  Al  Al16      1.0  0.0004371181249036054  0.008750000288311095  0.9993570796639246  1.0000
  Pt  Pt17      1.0  0.008734821390810119  0.006250000270291651  0.9992997495128041  1.0000
  Pt  Pt18      1.0  0.003734821522317167  0.006250000270291651  0.9997460705041589  1.0000
  Pt  Pt19      1.0  0.0012651785516555475  0.008750000288311095  4.4142650543829464e-05  1.0000
  Pt  Pt20      1.0  0.006265178625628262  0.008750000288311095  0.9995978216658024  1.0000
  Pt  Pt21      1.0  0.005830393312461587  0.006250000270291651  5.331883402987733e-06  1.0000
  Pt  Pt22      1.0  0.000830393392598694  0.006250000270291651  0.9995590111178452  1.0000
  Pt  Pt23      1.0  0.004169606424524318  0.008750000288311095  0.9993385602733316  1.0000
  Pt  Pt24      1.0  0.009169606703976794  0.008750000288311095  0.9997848810504628  1.0000
  Pt  Pt25      1.0  0.006351611221717305  0.006250000270291651  0.9994076457838295  1.0000
  Pt  Pt26      1.0  0.001351611353224353  0.006250000270291651  0.9998539667751842  1.0000
  Pt  Pt27      1.0  0.0036483889262281235  0.008750000288311095  0.9999362463861319  1.0000
  Pt  Pt28      1.0  0.008648388383761552  0.008750000288311095  0.9994899253815502  1.0000
  Pt  Pt29      1.0  0.002039123828311658  0.006250000270291651  0.9993462755962245  1.0000
  Pt  Pt30      1.0  0.007039123491324848  0.006250000270291651  0.9997925963535156  1.0000
  Pt  Pt31      1.0  0.00796087611415401  0.008750000288311095  0.9999976165671235  1.0000
  Pt  Pt32      1.0  0.0029608762456610565  0.008750000288311095  0.999551295803219  1.0000
