data_image0
_chemical_formula_structural       HPt21Sb3
_chemical_formula_sum              "H1 Pt21 Sb3"
_cell_length_a       5.720682621002197
_cell_length_b       5.720682671058784
_cell_length_c       112.03826141357422
_cell_angle_alpha    90.0
_cell_angle_beta     90.0
_cell_angle_gamma    119.99999971054878

_space_group_name_H-M_alt    "P 1"
_space_group_IT_number       1

loop_
  _space_group_symop_operation_xyz
  'x, y, z'

loop_
  _atom_site_type_symbol
  _atom_site_label
  _atom_site_symmetry_multiplicity
  _atom_site_fract_x
  _atom_site_fract_y
  _atom_site_fract_z
  _atom_site_occupancy
  H   H1        1.0  0.004979521576079921  0.009979541951556661  0.00010996706248566998  1.0000
  Pt  Pt1       1.0  3.1501706063040207e-09  2.0457699732413787e-05  0.9993781320694631  1.0000
  Pt  Pt2       1.0  0.006666669805823682  0.0033537907601751673  0.9989612282431372  1.0000
  Pt  Pt3       1.0  0.0033333366329921063  0.00668712506601408  0.999790701670723  1.0000
  Pt  Pt4       1.0  0.0016666697299948655  0.0033537907601751673  0.9995865839826261  1.0000
  Pt  Pt5       1.0  0.00833333625717608  0.006687124314076777  0.9991696801563001  1.0000
  Pt  Pt6       1.0  0.004979521576079921  0.009979541951556661  0.0  1.0000
  Pt  Pt7       1.0  3.1031315303443365e-09  0.005020457537125972  0.9993781320694631  1.0000
  Pt  Pt8       1.0  0.006666669886594303  0.00835379109102758  0.9989612282431372  1.0000
  Pt  Pt9       1.0  0.003309457327503068  0.001675158028948311  0.9997959057200169  1.0000
  Pt  Pt10      1.0  0.006666669886594303  0.00835379109102758  0.9995865839826261  1.0000
  Pt  Pt11      1.0  0.003333336357877816  0.0016871243591930147  0.9991696801563001  1.0000
  Pt  Pt12      1.0  4.0919264442980005e-05  0.005040937677487281  0.9999999962759819  1.0000
  Pt  Pt13      1.0  0.005000003275602305  2.0457699732413787e-05  0.9993781320694631  1.0000
  Pt  Pt14      1.0  0.0016666697299948655  0.0033537907601751673  0.9989612282431372  1.0000
  Pt  Pt15      1.0  0.008345286809265261  0.006710991556020797  0.9997959041240091  1.0000
  Pt  Pt16      1.0  0.0016666698800823349  0.00835379109102758  0.9995865839826261  1.0000
  Pt  Pt17      1.0  0.008333336201590581  0.0016871243591930147  0.9991696801563001  1.0000
  Pt  Pt18      1.0  0.00497952797458636  0.005040924894553125  0.9999999941479716  1.0000
  Pt  Pt19      1.0  0.0050000031096434985  0.005020457537125972  0.9993781320694631  1.0000
  Pt  Pt20      1.0  0.0016666698800823349  0.00835379109102758  0.9989612282431372  1.0000
  Pt  Pt21      1.0  0.008345287815670423  0.0016751544572461202  0.9997959083800299  1.0000
  Sb  Sb1       1.0  0.0033333364071039713  0.006687124314076777  0.9991696801563001  1.0000
  Sb  Sb2       1.0  0.009999996831749534  2.045879973444537e-05  1.6395787690348824e-05  1.0000
  Sb  Sb3       1.0  0.006666669805823682  0.0033537907601751673  0.9995865839826261  1.0000
