data_image0
_chemical_formula_structural       Al18Rh4H
_chemical_formula_sum              "Al18 Rh4 H1"
_cell_length_a       6.3998519515555365
_cell_length_b       6.485424041748047
_cell_length_c       34.769283294677734
_cell_angle_alpha    90.0
_cell_angle_beta     85.04612674802094
_cell_angle_gamma    90.0

_space_group_name_H-M_alt    "P 1"
_space_group_IT_number       1

loop_
  _space_group_symop_operation_xyz
  'x, y, z'

loop_
  _atom_site_type_symbol
  _atom_site_label
  _atom_site_symmetry_multiplicity
  _atom_site_fract_x
  _atom_site_fract_y
  _atom_site_fract_z
  _atom_site_occupancy
  Al  Al1       1.0  0.00033886784707073205  0.0050983080326551435  0.9993220963946934  1.0000
  Al  Al2       1.0  0.0002411087431828008  0.00011705795087356682  0.9980525635774626  1.0000
  Al  Al3       1.0  0.0023629028356254396  0.006173840744780499  0.9979512140358144  1.0000
  Al  Al4       1.0  0.008159696981645877  0.0011940558294953577  0.9994544532378937  1.0000
  Al  Al5       1.0  0.004242078789655657  0.005329733668751819  0.9986370880964603  1.0000
  Al  Al6       1.0  0.006240138880755815  0.00032973355386988525  0.9987346283798283  1.0000
  Al  Al7       1.0  0.006650476449532646  0.004681072642971945  0.9999304742111909  1.0000
  Al  Al8       1.0  0.004255214990535345  0.009882941282648525  0.9998842256291633  1.0000
  Al  Al9       1.0  0.004171385310616516  0.003041107754567338  0.9993181562850884  1.0000
  Al  Al10      1.0  0.006358661499154123  0.008153931981255679  0.9980453847936894  1.0000
  Al  Al11      1.0  0.006481361082374248  0.007214941617919963  0.9992967427108224  1.0000
  Al  Al12      1.0  0.004123556171257348  0.0020801837014977663  0.9980597428725976  1.0000
  Al  Al13      1.0  0.00120468625935556  0.0022496562387875232  0.9987435211574365  1.0000
  Al  Al14      1.0  0.009277531411055912  0.007249656066464621  0.9986281953188522  1.0000
  Al  Al15      1.0  0.009758891404346031  0.008180782761386729  0.9998977243194753  1.0000
  Al  Al16      1.0  0.0011272696285351859  0.0028910340371276354  0.9999820822687432  1.0000
  Al  Al17      1.0  0.0024290549098081294  0.008974383718160242  0.999206150200318  1.0000
  Al  Al18      1.0  0.008119314980854182  0.004060274794370528  0.9981539131995782  1.0000
  Rh  Rh1       1.0  0.003172894402608657  0.006242893977944138  0.9997278998694702  1.0000
  Rh  Rh2       1.0  0.007598738026338  0.0013457278418481985  0.9976262238094679  1.0000
  Rh  Rh3       1.0  0.007598738026338  0.003888387869625731  0.9988928130480421  1.0000
  Rh  Rh4       1.0  0.0028834793519371717  0.00888838769730283  0.9984789034328899  1.0000
  H   H1        1.0  0.0028009748022765433  0.0076086391352570264  0.9998984403271851  1.0000
