data_image0
_chemical_formula_structural       Sb24Ir12H
_chemical_formula_sum              "Sb24 Ir12 H1"
_cell_length_a       9.473389347433805
_cell_length_b       7.289823051456536
_cell_length_c       30.30618667602539
_cell_angle_alpha    89.1815943385569
_cell_angle_beta     99.21862954510965
_cell_angle_gamma    67.98940956838375

_space_group_name_H-M_alt    "P 1"
_space_group_IT_number       1

loop_
  _space_group_symop_operation_xyz
  'x, y, z'

loop_
  _atom_site_type_symbol
  _atom_site_label
  _atom_site_symmetry_multiplicity
  _atom_site_fract_x
  _atom_site_fract_y
  _atom_site_fract_z
  _atom_site_occupancy
  Sb  Sb1       1.0  0.008332358113461195  0.003194262164110541  0.9977554038245524  1.0000
  Sb  Sb2       1.0  0.004999024613475558  0.009860928926635313  0.9992106920850781  1.0000
  Sb  Sb3       1.0  0.0016656910102230524  0.006527595821886696  0.9963001154979566  1.0000
  Sb  Sb4       1.0  0.008447581525196571  0.0008168857533549924  0.9999150164929812  1.0000
  Sb  Sb5       1.0  0.0051339176308245575  0.007572599972867141  0.9969688673706308  1.0000
  Sb  Sb6       1.0  0.0018005838283806786  0.0042392668681185235  0.998424155620471  1.0000
  Sb  Sb7       1.0  0.0016448100383576985  0.0068217694184160675  0.9994818056649633  1.0000
  Sb  Sb8       1.0  0.008334309552499294  0.0034724043219004634  0.9965760250422212  1.0000
  Sb  Sb9       1.0  0.005000975615196117  0.0001390710011254641  0.9980313132860502  1.0000
  Sb  Sb10      1.0  0.0015327496789473202  0.009094066103903486  0.9973625614452936  1.0000
  Sb  Sb11      1.0  0.008199416617495351  0.0057607329991548675  0.998817849761742  1.0000
  Sb  Sb12      1.0  0.0049192412980977665  0.0024151309785108185  0.00024430072467100455  1.0000
  Sb  Sb13      1.0  0.0020299580636567944  0.008868480088495731  0.9983348196484824  1.0000
  Sb  Sb14      1.0  0.008783040008240449  0.005477001668568137  0.9998205736423385  1.0000
  Sb  Sb15      1.0  0.005363291440124848  0.0022018137407416112  0.9968795316261897  1.0000
  Sb  Sb16      1.0  0.008135984820000303  0.008548548128402623  0.997851943445062  1.0000
  Sb  Sb17      1.0  0.0048026512167477975  0.0052152150236540054  0.9993072319507208  1.0000
  Sb  Sb18      1.0  0.001469317695840349  0.0018818816423916188  0.996396655368673  1.0000
  Sb  Sb19      1.0  0.007970042663755665  0.0011315195022638912  0.9989071857487795  1.0000
  Sb  Sb20      1.0  0.00454168938392583  0.00785379954339215  0.0003539969783188771  1.0000
  Sb  Sb21      1.0  0.0013033755260162619  0.004464852607012509  0.9974518974223561  1.0000
  Sb  Sb22      1.0  0.001853945401578048  0.0014435572707884024  0.9993927654927661  1.0000
  Sb  Sb23      1.0  0.00853068303157211  0.008118117948368003  0.9964794854274958  1.0000
  Sb  Sb24      1.0  0.005197349428319605  0.0047847848436193855  0.9979347734414674  1.0000
  Ir  Ir1       1.0  5.8048116576638795e-05  0.0021571613296530426  0.9985913733402871  1.0000
  Ir  Ir2       1.0  0.0066132905732320555  0.008755036443895258  6.830718804128013e-06  1.0000
  Ir  Ir3       1.0  0.003391381670031301  0.005490494434401661  0.9971360853238218  1.0000
  Ir  Ir4       1.0  0.0015575721732102622  0.009459131194271194  4.550041732600661e-05  1.0000
  Ir  Ir5       1.0  0.00826219557960698  0.006182716789625777  0.9971924859788991  1.0000
  Ir  Ir6       1.0  0.004928862457082278  0.00284938340836339  0.998647774263738  1.0000
  Ir  Ir7       1.0  0.00994195217990586  0.007842838537620349  0.9986506320344447  1.0000
  Ir  Ir8       1.0  0.006550584848667061  0.004620076099420512  6.681014600096778e-05  1.0000
  Ir  Ir9       1.0  0.0032752854953011818  0.0011761719133524596  0.9971953434888554  1.0000
  Ir  Ir10      1.0  0.008404471227829224  0.0004839499037705541  0.9971389428441693  1.0000
  Ir  Ir11      1.0  0.005071137871947435  0.007150616182396232  0.9985942311135739  1.0000
  Ir  Ir12      1.0  0.001851224499369218  0.003843320443603473  0.9999881126760349  1.0000
  H   H1        1.0  0.007121097080876325  0.006378615180823546  0.00012544516400449904  1.0000
