data_image0
_chemical_formula_structural       COCa10As6
_chemical_formula_sum              "C1 O1 Ca10 As6"
_cell_length_a       6.889602184295654
_cell_length_b       8.636090238623423
_cell_length_c       104.54435729980469
_cell_angle_alpha    59.99999984677584
_cell_angle_beta     90.0
_cell_angle_gamma    90.0

_space_group_name_H-M_alt    "P 1"
_space_group_IT_number       1

loop_
  _space_group_symop_operation_xyz
  'x, y, z'

loop_
  _atom_site_type_symbol
  _atom_site_label
  _atom_site_symmetry_multiplicity
  _atom_site_fract_x
  _atom_site_fract_y
  _atom_site_fract_z
  _atom_site_occupancy
  C   C1        1.0  0.003749256174999791  0.0058480933937503895  0.9998037725059575  1.0000
  O   O1        1.0  0.003749256174999791  0.0058480933937503895  0.9999185559818331  1.0000
  Ca  Ca1       1.0  0.0012509068388418126  0.007002691415338742  0.9996125019121374  1.0000
  Ca  Ca2       1.0  0.0062470420892957864  0.003159977686373022  0.9994216213666067  1.0000
  Ca  Ca3       1.0  0.0012475544246918185  0.003162495557389679  0.9994217072255305  1.0000
  Ca  Ca4       1.0  0.006247605511157769  0.007009357422819637  0.9996124295517742  1.0000
  Ca  Ca5       1.0  0.0037476437719360356  0.00016497759905195994  0.9993003811480009  1.0000
  Ca  Ca6       1.0  0.008747644031477776  0.0076275856597750906  0.9993003811654841  1.0000
  Ca  Ca7       1.0  0.008747644031477776  0.0027023694474264627  0.9990907748286294  1.0000
  Ca  Ca8       1.0  0.0037476437719360356  0.0076275856597750906  0.9990907747230086  1.0000
  Ca  Ca9       1.0  0.0037476437719360356  0.0027023694474264627  0.9988811686712225  1.0000
  Ca  Ca10      1.0  0.008747644031477776  0.00016497759905195994  0.9988811685481183  1.0000
  As  As1       1.0  0.0037466558911857066  0.009835022356742095  0.9995937794102002  1.0000
  As  As2       1.0  0.008744765821716419  0.004399838889726928  0.9995942849218065  1.0000
  As  As3       1.0  0.008747644031477776  0.006267277327078257  0.9990907748555388  1.0000
  As  As4       1.0  0.0037476437719360356  0.004062678029170875  0.9990907746858126  1.0000
  As  As5       1.0  0.0037496214259285523  0.00634513358481746  0.9994039944834089  1.0000
  As  As6       1.0  0.008752446094391663  0.00019674760242593698  0.9994039565380622  1.0000
