data_image0
_chemical_formula_structural       COSi8Os8Si8Os8
_chemical_formula_sum              "C1 O1 Si16 Os16"
_cell_length_a       4.809588432312012
_cell_length_b       6.801784992218018
_cell_length_c       104.00892639160156
_cell_angle_alpha    90.0
_cell_angle_beta     90.0
_cell_angle_gamma    90.0

_space_group_name_H-M_alt    "P 1"
_space_group_IT_number       1

loop_
  _space_group_symop_operation_xyz
  'x, y, z'

loop_
  _atom_site_type_symbol
  _atom_site_label
  _atom_site_symmetry_multiplicity
  _atom_site_fract_x
  _atom_site_fract_y
  _atom_site_fract_z
  _atom_site_occupancy
  C   C1        1.0  0.00243393576478634  0.004961386939646926  6.615146602372038e-05  1.0000
  O   O1        1.0  0.00243393576478634  0.004961386939646926  0.00018152641253085054  1.0000
  Si  Si1       1.0  0.003354496589876426  0.004501954085516668  0.9988034001925743  1.0000
  Si  Si2       1.0  0.003354496589876426  0.009501953932162617  0.9991303809755955  1.0000
  Si  Si3       1.0  0.008354496342018857  0.003710947591244258  0.9992938716536423  1.0000
  Si  Si4       1.0  0.008354496342018857  0.008710947711736727  0.9989668905840849  1.0000
  Si  Si5       1.0  0.006645502914408436  0.007856450723364924  0.9993497525161638  1.0000
  Si  Si6       1.0  0.006645502914408436  0.002856450876718976  0.9990227714466063  1.0000
  Si  Si7       1.0  0.001645503162266005  0.005356451073888471  0.9990745001130741  1.0000
  Si  Si8       1.0  0.001645503162266005  0.0003564509533960018  0.9987475193300529  1.0000
  Os  Os1       1.0  0.006228224240931239  0.006628226626196152  0.9991303809755955  1.0000
  Os  Os2       1.0  0.006228224240931239  0.0016282263687804241  0.9988034001925743  1.0000
  Os  Os3       1.0  0.0012282244887888074  0.006584675171057243  0.9992938716536423  1.0000
  Os  Os4       1.0  0.0012282244887888074  0.001584675461334554  0.9989668905840849  1.0000
  Os  Os5       1.0  0.0037717752633536243  0.002856450876718976  0.9992107022297119  1.0000
  Os  Os6       1.0  0.0037717752633536243  0.007856450723364924  0.9988837214466907  1.0000
  Os  Os7       1.0  0.008771775402773506  0.005356451073888471  0.9988865693299686  1.0000
  Os  Os8       1.0  0.008771775402773506  0.0003564509533960018  0.9992135503995259  1.0000
  Si  Si9       1.0  0.003354496589876426  0.004501954085516668  0.9994573617586167  1.0000
  Si  Si10      1.0  0.0033466623543167567  0.009643549013742415  0.9998098815130182  1.0000
  Si  Si11      1.0  0.008484036776659907  0.003863981789653344  0.9999419368777901  1.0000
  Si  Si12      1.0  0.008354496342018857  0.008710947711736727  0.9996208524366635  1.0000
  Si  Si13      1.0  0.006339940618159751  0.007890572547437578  0.0  1.0000
  Si  Si14      1.0  0.006645502914408436  0.002856450876718976  0.9996767332991849  1.0000
  Si  Si15      1.0  0.0015705369946692283  0.005539283059820979  0.9997272049313494  1.0000
  Si  Si16      1.0  0.001645503162266005  0.0003564509533960018  0.9994014808960953  1.0000
  Os  Os9       1.0  0.006212328050670613  0.006702055647961351  0.9997783092354404  1.0000
  Os  Os10      1.0  0.006228224240931239  0.0016282263687804241  0.9994573617586167  1.0000
  Os  Os11      1.0  0.001235845044014795  0.006827082467394124  0.9999380617622403  1.0000
  Os  Os12      1.0  0.0012282244887888074  0.001584675461334554  0.9996208524366635  1.0000
  Os  Os13      1.0  0.0036320265823772476  0.0030956911380532076  0.9998611829540138  1.0000
  Os  Os14      1.0  0.0037717752633536243  0.007856450723364924  0.999537683012733  1.0000
  Os  Os15      1.0  0.008771775402773506  0.005356451073888471  0.999540531182547  1.0000
  Os  Os16      1.0  0.008494645855157192  0.0005177030462515993  0.9998593892374107  1.0000
