data_image0
_chemical_formula_structural       COPt18W6Pt18W6
_chemical_formula_sum              "C1 O1 Pt36 W12"
_cell_length_a       8.08376407623291
_cell_length_b       8.797968886401822
_cell_length_c       103.38594818115234
_cell_angle_alpha    71.56505019508067
_cell_angle_beta     90.0
_cell_angle_gamma    90.0

_space_group_name_H-M_alt    "P 1"
_space_group_IT_number       1

loop_
  _space_group_symop_operation_xyz
  'x, y, z'

loop_
  _atom_site_type_symbol
  _atom_site_label
  _atom_site_symmetry_multiplicity
  _atom_site_fract_x
  _atom_site_fract_y
  _atom_site_fract_z
  _atom_site_occupancy
  C   C1        1.0  0.0011508742151113303  0.006871798025862881  0.9999018831411305  1.0000
  O   O1        1.0  0.0011508742151113303  0.006871798025862881  1.795330859334725e-05  1.0000
  Pt  Pt1       1.0  0.0074999996681980085  0.008354053179729032  0.9989560268241705  1.0000
  Pt  Pt2       1.0  0.0074999996681980085  0.005020719995172491  0.9993148328751197  1.0000
  Pt  Pt3       1.0  0.0074999996681980085  0.0016873866990333556  0.9991354298062856  1.0000
  Pt  Pt4       1.0  0.0074999996681980085  0.005020719995172491  0.9990457283137267  1.0000
  Pt  Pt5       1.0  0.0074999996681980085  0.0016873866990333556  0.9988663255331554  1.0000
  Pt  Pt6       1.0  0.0074999996681980085  0.008354053179729032  0.9992251313855636  1.0000
  Pt  Pt7       1.0  9.999999483197376e-11  0.00668738681061595  0.9988663254263781  1.0000
  Pt  Pt8       1.0  9.999999483197376e-11  0.0033540534028942207  0.9992251311950698  1.0000
  Pt  Pt9       1.0  9.999999483197376e-11  2.0719901024676357e-05  0.9990457284200349  1.0000
  Pt  Pt10      1.0  0.0024999998893993364  0.005020719995172491  0.9990457283137267  1.0000
  Pt  Pt11      1.0  0.0024999998893993364  0.0016873866990333556  0.9988663255331554  1.0000
  Pt  Pt12      1.0  0.0024999998893993364  0.008354053179729032  0.9992251313855636  1.0000
  Pt  Pt13      1.0  0.0024999998893993364  0.008354053179729032  0.9989560268241705  1.0000
  Pt  Pt14      1.0  0.0024999998893993364  0.005020719995172491  0.9993148328751197  1.0000
  Pt  Pt15      1.0  0.0024999998893993364  0.0016873866990333556  0.9991354298062856  1.0000
  Pt  Pt16      1.0  0.004999999778798673  0.00668738681061595  0.9991354296995082  1.0000
  Pt  Pt17      1.0  0.004999999778798673  0.0033540534028942207  0.9989560269219396  1.0000
  Pt  Pt18      1.0  0.004999999778798673  2.0719901024676357e-05  0.999314832693165  1.0000
  W   W1        1.0  9.999999483197376e-11  0.00668738681061595  0.9991354296995082  1.0000
  W   W2        1.0  9.999999483197376e-11  0.0033540534028942207  0.9989560269219396  1.0000
  W   W3        1.0  9.999999483197376e-11  2.0719901024676357e-05  0.999314832693165  1.0000
  W   W4        1.0  0.004999999778798673  0.00668738681061595  0.9988663254263781  1.0000
  W   W5        1.0  0.004999999778798673  0.0033540534028942207  0.9992251311950698  1.0000
  W   W6        1.0  0.004999999778798673  2.0719901024676357e-05  0.9990457284200349  1.0000
  Pt  Pt19      1.0  0.0074999996681980085  0.008354053179729032  0.9994942356586937  1.0000
  Pt  Pt20      1.0  0.00759631349112204  0.005106783204123664  0.9998363272717797  1.0000
  Pt  Pt21      1.0  0.00755322485507184  0.0017704787982358167  0.9996769003432148  1.0000
  Pt  Pt22      1.0  0.0075058697984212944  0.005024629402959921  0.9995809804487664  1.0000
  Pt  Pt23      1.0  0.0074999996681980085  0.0016873866990333556  0.9994045343676786  1.0000
  Pt  Pt24      1.0  0.007698250896956635  0.008410852291067394  0.9997736601962142  1.0000
  Pt  Pt25      1.0  9.999999483197376e-11  0.00668738681061595  0.999404534549164  1.0000
  Pt  Pt26      1.0  9.999999483197376e-11  0.0031393379170868126  0.9997968769618946  1.0000
  Pt  Pt27      1.0  1.9999998966394752e-10  0.009979280451157889  0.9995789920524328  1.0000
  Pt  Pt28      1.0  0.0024941297591760505  0.005024629402959921  0.9995809804487664  1.0000
  Pt  Pt29      1.0  0.0024999998893993364  0.0016873866990333556  0.9994045343676786  1.0000
  Pt  Pt30      1.0  0.0023017481998046114  0.008410852291067394  0.9997736601962142  1.0000
  Pt  Pt31      1.0  0.0024999998893993364  0.008354053179729032  0.9994942356586937  1.0000
  Pt  Pt32      1.0  0.002403685144803108  0.005106783650454043  0.9998363272597688  1.0000
  Pt  Pt33      1.0  0.002446775163361604  0.0017704784634880327  0.999676900352223  1.0000
  Pt  Pt34      1.0  0.004999999317962574  0.006800159768422376  0.9996909260019925  1.0000
  Pt  Pt35      1.0  0.004999999778798673  0.0033540534028942207  0.9994942360447256  1.0000
  Pt  Pt36      1.0  0.005000000239634771  0.00019613850410498976  0.9998400129124648  1.0000
  W   W7        1.0  1.9999998966394752e-10  0.006645206358172631  0.9996769162862617  1.0000
  W   W8        1.0  9.999999483197376e-11  0.0033540534028942207  0.9994942360447256  1.0000
  W   W9        1.0  0.009999999557597346  0.00019451951039521306  0.9998245733090653  1.0000
  W   W10       1.0  0.004999999778798673  0.00668738681061595  0.999404534549164  1.0000
  W   W11       1.0  0.005000000239634771  0.003430897657872411  0.999743722389037  1.0000
  W   W12       1.0  0.004999999778798673  0.009967536606232343  0.9995984573820346  1.0000
