data_image0
_chemical_formula_structural       HSb2Ir2Sb2Ir2Sb2Ir2Sb2Ir2
_chemical_formula_sum              "H1 Sb8 Ir8"
_cell_length_a       8.160179338706177
_cell_length_b       5.623766899108887
_cell_length_c       102.64071655273438
_cell_angle_alpha    90.0
_cell_angle_beta     119.99999918712159
_cell_angle_gamma    90.0

_space_group_name_H-M_alt    "P 1"
_space_group_IT_number       1

loop_
  _space_group_symop_operation_xyz
  'x, y, z'

loop_
  _atom_site_type_symbol
  _atom_site_label
  _atom_site_symmetry_multiplicity
  _atom_site_fract_x
  _atom_site_fract_y
  _atom_site_fract_z
  _atom_site_occupancy
  H   H1        1.0  0.004492690224650315  0.0025356741934640077  0.00046738743901765333  1.0000
  Sb  Sb1       1.0  0.0017166119435722803  0.007535602877429626  0.9996775459745338  1.0000
  Sb  Sb2       1.0  0.0033832785153529144  0.002535602817811912  0.9999425537077284  1.0000
  Ir  Ir1       1.0  4.99452976619331e-05  0.005035602599213627  0.9998100497799639  1.0000
  Ir  Ir2       1.0  4.99452976619331e-05  3.5602847517265876e-05  0.9998100497799639  1.0000
  Sb  Sb3       1.0  0.00166071537253589  0.0075356843549721575  6.601539521825924e-05  1.0000
  Sb  Sb4       1.0  0.0032672268354264943  0.0025356741934640077  0.0003212466933299886  1.0000
  Ir  Ir3       1.0  0.009950029810239406  0.005106823576462532  0.0001915920285450485  1.0000
  Ir  Ir4       1.0  0.00995005405889216  0.00996439675161571  0.00019159734779387408  1.0000
  Sb  Sb5       1.0  0.006716611658914184  0.007535602877429626  0.9996775458006191  1.0000
  Sb  Sb6       1.0  0.00838327849426713  0.002535602817811912  0.9999425538346468  1.0000
  Ir  Ir5       1.0  0.005049945350705861  0.005035602599213627  0.999810049909829  1.0000
  Ir  Ir6       1.0  0.005049945350705861  3.5602847517265876e-05  0.999810049909829  1.0000
  Sb  Sb7       1.0  0.006660715351450105  0.0075356843549721575  6.601581249235658e-05  1.0000
  Sb  Sb8       1.0  0.008267226550768397  0.0025356741934640077  0.00032124651941527264  1.0000
  Ir  Ir7       1.0  0.0049500303584698166  0.005106823576462532  0.00019159192258132342  1.0000
  Ir  Ir8       1.0  0.00495005460712257  0.00996439675161571  0.00019159753218590044  1.0000
