data_image0
_chemical_formula_structural       CONa8Ge4Se12Na8Ge4Se12
_chemical_formula_sum              "C1 O1 Na16 Ge8 Se24"
_cell_length_a       7.283274766789811
_cell_length_b       17.73852553317028
_cell_length_c       107.38774871826172
_cell_angle_alpha    110.56597931730602
_cell_angle_beta     113.80837196591027
_cell_angle_gamma    81.8475950662338

_space_group_name_H-M_alt    "P 1"
_space_group_IT_number       1

loop_
  _space_group_symop_operation_xyz
  'x, y, z'

loop_
  _atom_site_type_symbol
  _atom_site_label
  _atom_site_symmetry_multiplicity
  _atom_site_fract_x
  _atom_site_fract_y
  _atom_site_fract_z
  _atom_site_occupancy
  C   C1        1.0  0.007220565840217153  0.006728107538170185  0.00047634854887385877  1.0000
  O   O1        1.0  0.007220565840217153  0.006728107538170185  0.0005880933657819576  1.0000
  Na  Na1       1.0  0.00043854844493149077  0.0066707639729092025  0.999800604832174  1.0000
  Na  Na2       1.0  0.009025157183900808  0.001670764107493237  0.9997660666049024  1.0000
  Na  Na3       1.0  0.009025157183900808  0.003329235982229452  0.999572170852238  1.0000
  Na  Na4       1.0  0.00043854844493149077  0.008329236296258865  0.9996067088280203  1.0000
  Na  Na5       1.0  0.0025775797586443587  0.00023825591006944105  0.999507212534361  1.0000
  Na  Na6       1.0  0.0025775797586443587  0.004761744179653248  0.999479562496854  1.0000
  Na  Na7       1.0  0.006886125835246605  0.00523825599979213  0.999312952121737  1.0000
  Na  Na8       1.0  0.006886125835246605  0.009761744269375938  0.99928530208423  1.0000
  Ge  Ge1       1.0  0.005015691599860773  0.003298210997762244  0.9997849093464827  1.0000
  Ge  Ge2       1.0  0.00444801399403019  0.008298211087484934  0.9993903700798962  1.0000
  Ge  Ge3       1.0  0.00444801399403019  0.006701789181683134  0.9995878663499884  1.0000
  Ge  Ge4       1.0  0.005015691599860773  0.0017017889798070832  0.9994021448097078  1.0000
  Se  Se1       1.0  0.0009686121583920458  0.008529499133494154  0.9993431993547405  1.0000
  Se  Se2       1.0  0.008495093225850911  0.003529499043771465  0.9992786604725455  1.0000
  Se  Se3       1.0  0.008495093225850911  0.0014705009337978624  0.9994493152516029  1.0000
  Se  Se4       1.0  0.0009686121583920458  0.006470500687060466  0.9995138541142743  1.0000
  Se  Se5       1.0  0.004149531138053555  0.001933533602152081  0.9996118577855546  1.0000
  Se  Se6       1.0  0.005314174455837409  0.006933533467568047  0.9994050475483087  1.0000
  Se  Se7       1.0  0.005314174455837409  0.008066466352986574  0.9997609178979008  1.0000
  Se  Se8       1.0  0.004149531138053555  0.003066466487570608  0.9993874670572667  1.0000
  Se  Se9       1.0  0.006692967342730764  0.009380580751281814  0.9995559565590745  1.0000
  Se  Se10      1.0  0.0027707385306908762  0.004380581110172571  0.9997449339945905  1.0000
  Se  Se11      1.0  0.0027707385306908762  0.0006194189795501175  0.9998168191190184  1.0000
  Se  Se12      1.0  0.006692967342730764  0.005619419069272807  0.9996278417095337  1.0000
  Na  Na9       1.0  0.009348790532931988  0.006812936303494103  0.0003281623666530111  1.0000
  Na  Na10      1.0  0.00847970114870023  0.001328574106921883  0.00029345449262017595  1.0000
  Na  Na11      1.0  0.009362967769764188  0.0032738295298330093  0.00013876665026445794  1.0000
  Na  Na12      1.0  0.0018190263077992512  0.00825413391908133  0.000212729953720679  1.0000
  Na  Na13      1.0  0.0025775797586443587  0.00023825591006944105  8.747333472036497e-05  1.0000
  Na  Na14      1.0  0.0025775797586443587  0.004761744179653248  5.982357473411377e-05  1.0000
  Na  Na15      1.0  0.006886125835246605  0.00523825599979213  0.999893213199617  1.0000
  Na  Na16      1.0  0.006886125835246605  0.009761744269375938  0.9998655631621101  1.0000
  Ge  Ge5       1.0  0.005611706907515187  0.0035773770896055474  0.00030213164210799196  1.0000
  Ge  Ge6       1.0  0.00444801399403019  0.008298211087484934  0.9999706308802555  1.0000
  Ge  Ge7       1.0  0.004564033480690575  0.006658228815970581  0.0001793222819123369  1.0000
  Ge  Ge8       1.0  0.005015691599860773  0.0017017889798070832  0.9999824058875878  1.0000
  Se  Se13      1.0  0.0009686121583920458  0.008529499133494154  0.9999234601550998  1.0000
  Se  Se14      1.0  0.008495093225850911  0.003529499043771465  0.999858921272905  1.0000
  Se  Se15      1.0  0.008495093225850911  0.0014705009337978624  2.9576051962263478e-05  1.0000
  Se  Se16      1.0  0.0009686121583920458  0.006470500687060466  9.411491463369337e-05  1.0000
  Se  Se17      1.0  0.004497996874229837  0.002009788018661745  0.00020840883536748958  1.0000
  Se  Se18      1.0  0.005314174455837409  0.006933533467568047  0.9999853086261887  1.0000
  Se  Se19      1.0  0.005802107550380284  0.007757376174075225  0.00038980683247781214  1.0000
  Se  Se20      1.0  0.004149531138053555  0.003066466487570608  0.9999677281351468  1.0000
  Se  Se21      1.0  0.006131109565577306  0.00937312928192563  0.00020095009493869518  1.0000
  Se  Se22      1.0  0.0028100310397124267  0.004305074980892656  0.0003276139320301898  1.0000
  Se  Se23      1.0  0.009561451880721748  0.009722839614017296  0.00028995972226219174  1.0000
  Se  Se24      1.0  0.006574986389315942  0.005475033728553406  0.00017950777578875764  1.0000
