data_image0
_chemical_formula_structural       HTi3Ru3Ti3Ru3Ti3Ru3Ti3Ru3Ti3Ru3Ti3Ru3Ti3Ru3Ti3Ru3
_chemical_formula_sum              "H1 Ti24 Ru24"
_cell_length_a       8.741019248962402
_cell_length_b       8.741019364993187
_cell_length_c       102.1165542602539
_cell_angle_alpha    90.0
_cell_angle_beta     90.0
_cell_angle_gamma    60.00000043910982

_space_group_name_H-M_alt    "P 1"
_space_group_IT_number       1

loop_
  _space_group_symop_operation_xyz
  'x, y, z'

loop_
  _atom_site_type_symbol
  _atom_site_label
  _atom_site_symmetry_multiplicity
  _atom_site_fract_x
  _atom_site_fract_y
  _atom_site_fract_z
  _atom_site_occupancy
  H   H1        1.0  0.0008333343969469455  0.0008333334563623108  0.00012065152984159956  1.0000
  Ti  Ti1       1.0  0.004166666325718758  0.004166666666666667  0.9991437488102016  1.0000
  Ti  Ti2       1.0  0.0008333326164184213  0.0008333333948478221  0.9994932033376216  1.0000
  Ti  Ti3       1.0  0.0024999995397203224  0.0025  0.9993184759279885  1.0000
  Ru  Ru1       1.0  0.004166666325718758  0.004166666666666667  0.999405839486882  1.0000
  Ru  Ru2       1.0  0.0008333326164184213  0.0008333333948478221  0.9992311123690951  1.0000
  Ru  Ru3       1.0  0.0024999995397203224  0.0025  0.9990563852513082  1.0000
  Ti  Ti4       1.0  0.004166666325718758  0.004166666666666667  0.9996679304554085  1.0000
  Ti  Ti5       1.0  0.0008333343969469455  0.0008333334563623108  0.0  1.0000
  Ti  Ti6       1.0  0.0024999998428762316  0.002500000246057955  0.9998484565560355  1.0000
  Ru  Ru4       1.0  0.0041666676042734175  0.004166666666666667  0.9999192642669897  1.0000
  Ru  Ru5       1.0  0.0008333329052998419  0.0008333334563623108  0.9997566715280918  1.0000
  Ru  Ru6       1.0  0.0024999995397203224  0.0025  0.9995805668965151  1.0000
  Ti  Ti7       1.0  0.004166666018865639  0.009166666666666667  0.9991437488102016  1.0000
  Ti  Ti8       1.0  0.0008333328730536555  0.005833333333333334  0.9994932033376216  1.0000
  Ti  Ti9       1.0  0.0024999996590520904  0.007500000000000001  0.9993184759279885  1.0000
  Ru  Ru7       1.0  0.004166666018865639  0.009166666666666667  0.999405839486882  1.0000
  Ru  Ru8       1.0  0.0008333328730536555  0.005833333333333334  0.9992311123690951  1.0000
  Ru  Ru9       1.0  0.0024999996590520904  0.007500000000000001  0.9990563852513082  1.0000
  Ti  Ti10      1.0  0.004166666018865639  0.009166666666666667  0.9996679304554085  1.0000
  Ti  Ti11      1.0  0.0008333345777932024  0.005833333333333334  0.0  1.0000
  Ti  Ti12      1.0  0.002499999839179022  0.00750000049211591  0.9998484565560355  1.0000
  Ru  Ru10      1.0  0.004166667723605186  0.009166666666666667  0.9999192642669897  1.0000
  Ru  Ru11      1.0  0.0008333332992385422  0.005833333333333334  0.9997566715280918  1.0000
  Ru  Ru12      1.0  0.0024999996590520904  0.007500000000000001  0.9995805668965151  1.0000
  Ti  Ti13      1.0  0.009166666564382295  0.004166666666666667  0.9991437488102016  1.0000
  Ti  Ti14      1.0  0.00583333296162818  0.0008333333948478221  0.9994932033376216  1.0000
  Ti  Ti15      1.0  0.0074999993521989725  0.0025  0.9993184759279885  1.0000
  Ru  Ru13      1.0  0.009166666564382295  0.004166666666666667  0.999405839486882  1.0000
  Ru  Ru14      1.0  0.00583333296162818  0.0008333333948478221  0.9992311123690951  1.0000
  Ru  Ru15      1.0  0.0074999993521989725  0.0025  0.9990563852513082  1.0000
  Ti  Ti16      1.0  0.009166666564382295  0.004166666666666667  0.9996679304554085  1.0000
  Ti  Ti17      1.0  0.0058333346356104826  0.0008333334563623108  0.0  1.0000
  Ti  Ti18      1.0  0.007500000081539769  0.002500000246057955  0.9998484565560355  1.0000
  Ru  Ru16      1.0  0.009166667416752068  0.004166666666666667  0.9999192642669897  1.0000
  Ru  Ru17      1.0  0.005833332930870935  0.0008333334563623108  0.9997566715280918  1.0000
  Ru  Ru18      1.0  0.0074999993521989725  0.0025  0.9995805668965151  1.0000
  Ti  Ti19      1.0  0.009166666257529177  0.009166666666666667  0.9991437488102016  1.0000
  Ti  Ti20      1.0  0.0058333326855323055  0.005833333333333334  0.9994932033376216  1.0000
  Ti  Ti21      1.0  0.007499999897715628  0.007500000000000001  0.9993184759279885  1.0000
  Ru  Ru19      1.0  0.009166666257529177  0.009166666666666667  0.999405839486882  1.0000
  Ru  Ru20      1.0  0.0058333326855323055  0.005833333333333334  0.9992311123690951  1.0000
  Ru  Ru21      1.0  0.007499999897715628  0.007500000000000001  0.9990563852513082  1.0000
  Ti  Ti22      1.0  0.009166666257529177  0.009166666666666667  0.9996679304554085  1.0000
  Ti  Ti23      1.0  0.005833334390271852  0.005833333333333334  0.0  1.0000
  Ti  Ti24      1.0  0.007500000504027445  0.00750000049211591  0.9998484565560355  1.0000
  Ru  Ru22      1.0  0.009166667962268723  0.009166666666666667  0.9999192642669897  1.0000
  Ru  Ru23      1.0  0.005833333537902078  0.005833333333333334  0.9997566715280918  1.0000
  Ru  Ru24      1.0  0.007499999897715628  0.007500000000000001  0.9995805668965151  1.0000
