data_image0
_chemical_formula_structural       COPd8Pb16Pd8Pb16
_chemical_formula_sum              "C1 O1 Pd16 Pb32"
_cell_length_a       7.099508762359619
_cell_length_b       15.402656660770836
_cell_length_c       105.81438446044922
_cell_angle_alpha    67.19880888191244
_cell_angle_beta     90.0
_cell_angle_gamma    90.0

_space_group_name_H-M_alt    "P 1"
_space_group_IT_number       1

loop_
  _space_group_symop_operation_xyz
  'x, y, z'

loop_
  _atom_site_type_symbol
  _atom_site_label
  _atom_site_symmetry_multiplicity
  _atom_site_fract_x
  _atom_site_fract_y
  _atom_site_fract_z
  _atom_site_occupancy
  C   C1        1.0  0.004126402080104246  0.008725171121663749  0.9995795103167443  1.0000
  O   O1        1.0  0.004126402080104246  0.008725171121663749  0.9996929166780806  1.0000
  Pd  Pd1       1.0  0.0050096327141051274  0.0029081969252420068  0.9990308580944673  1.0000
  Pd  Pd2       1.0  0.0050096327141051274  0.007908197261066058  0.9987488045181095  1.0000
  Pd  Pd3       1.0  0.0050096327141051274  0.0029081969252420068  0.9987488042216087  1.0000
  Pd  Pd4       1.0  0.0050096327141051274  0.007908197261066058  0.9990308578276738  1.0000
  Pd  Pd5       1.0  9.632450020833475e-06  0.005408197093154032  0.9986077774334298  1.0000
  Pd  Pd6       1.0  9.632450020833475e-06  0.0004081969213065685  0.9988898310005376  1.0000
  Pd  Pd7       1.0  9.632450020833475e-06  0.005408197093154032  0.9988898313062884  1.0000
  Pd  Pd8       1.0  9.632450020833475e-06  0.0004081969213065685  0.9986077776909733  1.0000
  Pb  Pb1       1.0  0.006642420268150132  0.001224590796715023  0.998984804577605  1.0000
  Pb  Pb2       1.0  0.006642420268150132  0.006224591132539074  0.9987027510012472  1.0000
  Pb  Pb3       1.0  0.008376844971159095  0.003724590702264509  0.9988437778042262  1.0000
  Pb  Pb4       1.0  0.008376844971159095  0.00872459077572602  0.9985617242426683  1.0000
  Pb  Pb5       1.0  0.008376844971159095  0.0020918031482195045  0.9986538309206385  1.0000
  Pb  Pb6       1.0  0.008376844971159095  0.007091803221681016  0.9989358842598565  1.0000
  Pb  Pb7       1.0  0.006642420268150132  0.00459180305376899  0.9985128041472596  1.0000
  Pb  Pb8       1.0  0.006642420268150132  0.009591803389593041  0.9987948574716775  1.0000
  Pb  Pb9       1.0  0.0016424200635073505  0.003724590702264509  0.9985617242130147  1.0000
  Pb  Pb10      1.0  0.0016424200635073505  0.00872459077572602  0.9988437775522326  1.0000
  Pb  Pb11      1.0  0.0033768451600601234  0.001224590796715023  0.9987027509863935  1.0000
  Pb  Pb12      1.0  0.0033768451600601234  0.006224591132539074  0.9989848043108114  1.0000
  Pb  Pb13      1.0  0.0033768451600601234  0.00459180305376899  0.9987948577384711  1.0000
  Pb  Pb14      1.0  0.0033768451600601234  0.009591803389593041  0.9985128041621132  1.0000
  Pb  Pb15      1.0  0.0016424200635073505  0.0020918031482195045  0.99893588451185  1.0000
  Pb  Pb16      1.0  0.0016424200635073505  0.007091803221681016  0.9986538309502921  1.0000
  Pd  Pd9       1.0  0.005238185642729285  0.0029082373290731144  0.9995538701116511  1.0000
  Pd  Pd10      1.0  0.005046811060150185  0.007918677595075316  0.9992941463685686  1.0000
  Pd  Pd11      1.0  0.004970538596795473  0.002917998527361164  0.9992941426760349  1.0000
  Pd  Pd12      1.0  0.00478195135383772  0.007908259703350497  0.9995538894435435  1.0000
  Pd  Pd13      1.0  9.632450020833475e-06  0.005408197093154032  0.9991718846158527  1.0000
  Pd  Pd14      1.0  2.9353450940040573e-05  0.0006309102173182919  0.9994398200750735  1.0000
  Pd  Pd15      1.0  0.009990367768641947  0.005630943938775515  0.999439797646376  1.0000
  Pd  Pd16      1.0  9.632450020833475e-06  0.0004081969213065685  0.9991718848733963  1.0000
  Pb  Pb17      1.0  0.006636077916116392  0.0012486485233329544  0.9995420366151131  1.0000
  Pb  Pb18      1.0  0.006642420268150132  0.006224591132539074  0.99926685818367  1.0000
  Pb  Pb19      1.0  0.008552451040379551  0.003837548007727177  0.9994248908267396  1.0000
  Pb  Pb20      1.0  0.008376844971159095  0.00872459077572602  0.9991258314250913  1.0000
  Pb  Pb21      1.0  0.008376844971159095  0.0020918031482195045  0.9992179378214143  1.0000
  Pb  Pb22      1.0  0.008280598847660069  0.007105314367748426  0.9995081991681252  1.0000
  Pb  Pb23      1.0  0.006642420268150132  0.00459180305376899  0.9990769110480354  1.0000
  Pb  Pb24      1.0  0.006785751547191776  0.009558248270220688  0.9993790153155878  1.0000
  Pb  Pb25      1.0  0.0016424200635073505  0.003724590702264509  0.9991258311137904  1.0000
  Pb  Pb26      1.0  0.0014670524818354452  0.008837554115527101  0.9994248789684578  1.0000
  Pb  Pb27      1.0  0.0033768451600601234  0.001224590796715023  0.9992668578871693  1.0000
  Pb  Pb28      1.0  0.0033830823047154603  0.006248823986152228  0.9995420349186963  1.0000
  Pb  Pb29      1.0  0.0032336875650197344  0.004557880102116035  0.9993790633701908  1.0000
  Pb  Pb30      1.0  0.0033768451600601234  0.009591803389593041  0.9990769113445361  1.0000
  Pb  Pb31      1.0  0.0017389877122987298  0.002105267593754855  0.9995081896620532  1.0000
  Pb  Pb32      1.0  0.0016424200635073505  0.007091803221681016  0.9992179381327151  1.0000
