data_image0
_chemical_formula_structural       Os6Si3V3Os6Si3V3Os6Si3V3Os6Si3V3H
_chemical_formula_sum              "Os24 Si12 V12 H1"
_cell_length_a       8.464190483093262
_cell_length_b       8.46419092131743
_cell_length_c       101.09942626953125
_cell_angle_alpha    90.0
_cell_angle_beta     90.0
_cell_angle_gamma    119.99999828733323

_space_group_name_H-M_alt    "P 1"
_space_group_IT_number       1

loop_
  _space_group_symop_operation_xyz
  'x, y, z'

loop_
  _atom_site_type_symbol
  _atom_site_label
  _atom_site_symmetry_multiplicity
  _atom_site_fract_x
  _atom_site_fract_y
  _atom_site_fract_z
  _atom_site_occupancy
  Os  Os1       1.0  0.001666667083800099  0.004166664921809019  0.9990785461684564  1.0000
  Os  Os2       1.0  1.1826139201349595e-09  0.0008333325142666609  0.9997613371672704  1.0000
  Os  Os3       1.0  0.0033333338185116373  0.00249999824159006  0.9994203377078965  1.0000
  Os  Os4       1.0  0.0033333325321843917  0.0024999987498010253  0.9999261381653458  1.0000
  Os  Os5       1.0  0.001666667083800099  0.004166664921809019  0.9995912336250078  1.0000
  Os  Os6       1.0  3.485656851229249e-10  0.0008333315613711008  0.9992494420855675  1.0000
  Si  Si1       1.0  3.485656851229249e-10  0.0008333315613711008  0.9995057856664521  1.0000
  Si  Si2       1.0  0.0033333338185116373  0.00249999824159006  0.999163994127012  1.0000
  Si  Si3       1.0  0.001666665902189824  0.004166668225180294  0.9998844571258798  1.0000
  V   V1        1.0  0.001666667083800099  0.004166664921809019  0.9993348897493409  1.0000
  V   V2        1.0  0.010000000284324366  0.0008333327048457729  0.0  1.0000
  V   V3        1.0  0.0033333338185116373  0.00249999824159006  0.9996766809939988  1.0000
  Os  Os7       1.0  0.001666667156360261  0.00916666521657138  0.9990785461684564  1.0000
  Os  Os8       1.0  9.503086027290167e-10  0.005833332364344426  0.9997613371672704  1.0000
  Os  Os9       1.0  0.0033333335544431355  0.007499998028141455  0.9994203377078965  1.0000
  Os  Os10      1.0  0.003333332185592706  0.00749999853635242  0.9999261381653458  1.0000
  Os  Os11      1.0  0.001666667156360261  0.00916666521657138  0.9995912336250078  1.0000
  Os  Os12      1.0  2.2203581881477533e-10  0.005833331347922495  0.9992494420855675  1.0000
  Si  Si4       1.0  2.2203581881477533e-10  0.005833331347922495  0.9995057856664521  1.0000
  Si  Si5       1.0  0.0033333335544431355  0.007499998028141455  0.999163994127012  1.0000
  Si  Si6       1.0  0.0016666658201895167  0.009166668265837171  0.9998844571258798  1.0000
  V   V4        1.0  0.001666667156360261  0.00916666521657138  0.9993348897493409  1.0000
  V   V5        1.0  0.009999999709159947  0.005833332364344426  0.0  1.0000
  V   V6        1.0  0.0033333335544431355  0.007499998028141455  0.9996766809939988  1.0000
  Os  Os13      1.0  0.0066666673434730445  0.004166664921809019  0.9990785461684564  1.0000
  Os  Os14      1.0  0.005000001579825502  0.0008333325142666609  0.9997613371672704  1.0000
  Os  Os15      1.0  0.008333333968153675  0.00249999824159006  0.9994203377078965  1.0000
  Os  Os16      1.0  0.008333332901888247  0.0024999987498010253  0.9999261381653458  1.0000
  Os  Os17      1.0  0.0066666673434730445  0.004166664921809019  0.9995912336250078  1.0000
  Os  Os18      1.0  0.005000000663254086  0.0008333315613711008  0.9992494420855675  1.0000
  Si  Si7       1.0  0.005000000663254086  0.0008333315613711008  0.9995057856664521  1.0000
  Si  Si8       1.0  0.008333333968153675  0.00249999824159006  0.999163994127012  1.0000
  Si  Si9       1.0  0.006666666354416861  0.004166668225180294  0.9998844571258798  1.0000
  V   V7        1.0  0.0066666673434730445  0.004166664921809019  0.9993348897493409  1.0000
  V   V8        1.0  0.004999999914620511  0.0008333327048457729  0.0  1.0000
  V   V9        1.0  0.008333333968153675  0.00249999824159006  0.9996766809939988  1.0000
  Os  Os19      1.0  0.0066666673060022975  0.00916666521657138  0.9990785461684564  1.0000
  Os  Os20      1.0  0.005000001320012457  0.005833332364344426  0.9997613371672704  1.0000
  Os  Os21      1.0  0.008333333896639265  0.007499998028141455  0.9994203377078965  1.0000
  Os  Os22      1.0  0.008333332390250197  0.00749999853635242  0.9999261381653458  1.0000
  Os  Os23      1.0  0.0066666673060022975  0.00916666521657138  0.9995912336250078  1.0000
  Os  Os24      1.0  0.005000000371677855  0.005833331347922495  0.9992494420855675  1.0000
  Si  Si10      1.0  0.005000000371677855  0.005833331347922495  0.9995057856664521  1.0000
  Si  Si11      1.0  0.008333333896639265  0.007499998028141455  0.999163994127012  1.0000
  Si  Si12      1.0  0.006666665969831553  0.009166668265837171  0.9998844571258798  1.0000
  V   V10       1.0  0.0066666673060022975  0.00916666521657138  0.9993348897493409  1.0000
  V   V11       1.0  0.0049999993394560915  0.005833332364344426  0.0  1.0000
  V   V12       1.0  0.008333333896639265  0.007499998028141455  0.9996766809939988  1.0000
  H   H1        1.0  0.00416666672477198  0.0016666654096915458  0.9999867094447837  1.0000
