data_image0
_chemical_formula_structural       HSb24Rh12
_chemical_formula_sum              "H1 Sb24 Rh12"
_cell_length_a       6.741656260700602
_cell_length_b       15.192256742557301
_cell_length_c       108.20465087890625
_cell_angle_alpha    70.53408420734672
_cell_angle_beta     108.49228925973951
_cell_angle_gamma    113.5037860934761

_space_group_name_H-M_alt    "P 1"
_space_group_IT_number       1

loop_
  _space_group_symop_operation_xyz
  'x, y, z'

loop_
  _atom_site_type_symbol
  _atom_site_label
  _atom_site_symmetry_multiplicity
  _atom_site_fract_x
  _atom_site_fract_y
  _atom_site_fract_z
  _atom_site_occupancy
  H   H1        1.0  0.00755643240682144  0.00882552761878774  0.9998376372910417  1.0000
  Sb  Sb1       1.0  0.0064195044419954606  0.008210636395070721  0.9990945928350812  1.0000
  Sb  Sb2       1.0  0.006449388281804468  0.004897529680417749  0.9996841803134268  1.0000
  Sb  Sb3       1.0  0.006419504234087102  0.0015439696972048753  0.9993888244378267  1.0000
  Sb  Sb4       1.0  0.003313548035623118  0.0060463249316777615  0.9993448974704904  1.0000
  Sb  Sb5       1.0  0.003313547790084738  0.0027129915139231203  0.9990506659082617  1.0000
  Sb  Sb6       1.0  0.003185689797218557  0.009341354658431798  0.9996426790436445  1.0000
  Sb  Sb7       1.0  0.003313547693028229  0.005122696725374095  0.9990666064502183  1.0000
  Sb  Sb8       1.0  0.0031629957385611255  0.001737256457446058  0.9996579499651164  1.0000
  Sb  Sb9       1.0  0.003313547995073361  0.008456030418415611  0.9993608380006832  1.0000
  Sb  Sb10      1.0  0.006619347152246679  0.007351785392624799  0.9997058227976793  1.0000
  Sb  Sb11      1.0  0.006419504165283969  0.0039536750462992876  0.9994047649739014  1.0000
  Sb  Sb12      1.0  0.006419503947998964  0.0006203417661880838  0.9991105334057909  1.0000
  Sb  Sb13      1.0  0.008359363505564012  0.006633706187455262  0.999198417097353  1.0000
  Sb  Sb14      1.0  0.008624583811847653  0.0033618085414760506  0.9997850274278527  1.0000
  Sb  Sb15      1.0  0.00835936388044201  0.009967039880496778  0.9994926486492572  1.0000
  Sb  Sb16      1.0  0.0013736886711738956  0.009121153238117139  0.998976635518399  1.0000
  Sb  Sb17      1.0  0.0013487223012000474  0.005819328330153689  0.9995663254549999  1.0000
  Sb  Sb18      1.0  0.0013736886371846432  0.00245448667789473  0.9992708671181413  1.0000
  Sb  Sb19      1.0  0.0013736887387089738  0.006699626932989554  0.9989627821901053  1.0000
  Sb  Sb20      1.0  0.0013770519152143034  0.003375644184500029  0.999550690332279  1.0000
  Sb  Sb21      1.0  0.0013736886160035672  3.296040072596915e-05  0.9992570132359353  1.0000
  Sb  Sb22      1.0  0.008359363573099092  0.004212179882327679  0.9991845637690594  1.0000
  Sb  Sb23      1.0  0.008651277853051304  0.0008642901893334149  0.9997618863804083  1.0000
  Sb  Sb24      1.0  0.008359363397966396  0.007545513024795445  0.9994787953358552  1.0000
  Rh  Rh1       1.0  0.007151495859092078  0.005710769501780264  0.999437106055292  1.0000
  Rh  Rh2       1.0  0.0071514957428933145  0.002377436359312498  0.999142874482739  1.0000
  Rh  Rh3       1.0  0.00694528344041119  0.009129809909171716  0.9997100776959669  1.0000
  Rh  Rh4       1.0  0.0025815562228402155  0.007626071324019047  0.9991648214689026  1.0000
  Rh  Rh5       1.0  0.002524974765369786  0.004362520100786885  0.9997310880566098  1.0000
  Rh  Rh6       1.0  0.002581555978515425  0.0009594046261532009  0.9994590525200775  1.0000
  Rh  Rh7       1.0  0.0027497399751297193  0.007667089618888798  0.9995999544001162  1.0000
  Rh  Rh8       1.0  0.0025815561396425276  0.004289230200909911  0.9993125563979849  1.0000
  Rh  Rh9       1.0  0.0025815559951903877  0.0009558969207987065  0.9990183248313137  1.0000
  Rh  Rh10      1.0  0.007151495730101313  0.00570726179642577  0.9989963778127986  1.0000
  Rh  Rh11      1.0  0.00714830531530905  0.002350393553198955  0.9995867979201206  1.0000
  Rh  Rh12      1.0  0.00715149625064504  0.009040595489467286  0.9992906093675814  1.0000
