data_image0
_chemical_formula_structural       HTi20Ge12
_chemical_formula_sum              "H1 Ti20 Ge12"
_cell_length_a       9.260889460291095
_cell_length_b       7.627558519235694
_cell_length_c       107.0435562133789
_cell_angle_alpha    65.68105676977005
_cell_angle_beta     69.10004896109038
_cell_angle_gamma    65.68105686195949

_space_group_name_H-M_alt    "P 1"
_space_group_IT_number       1

loop_
  _space_group_symop_operation_xyz
  'x, y, z'

loop_
  _atom_site_type_symbol
  _atom_site_label
  _atom_site_symmetry_multiplicity
  _atom_site_fract_x
  _atom_site_fract_y
  _atom_site_fract_z
  _atom_site_occupancy
  H   H1        1.0  0.0027304382736385215  0.00570482961322505  0.9997644175758601  1.0000
  Ti  Ti1       1.0  0.004020534090115614  0.0011291712726493731  0.9994191780696736  1.0000
  Ti  Ti2       1.0  0.009094084826762038  0.0010946958822758042  0.9989798636620353  1.0000
  Ti  Ti3       1.0  0.002839415823173193  0.00611337227190688  0.9993038915647007  1.0000
  Ti  Ti4       1.0  0.007839416013469219  0.006113372519775307  0.9988713157695723  1.0000
  Ti  Ti5       1.0  0.001917661749953836  0.00612607610367412  0.9995993398851607  1.0000
  Ti  Ti6       1.0  0.006594084844885469  0.006113372300123089  0.9991961513620371  1.0000
  Ti  Ti7       1.0  0.001177418255243384  0.0002707007834785143  0.9993763912185073  1.0000
  Ti  Ti8       1.0  0.0061774181057250785  0.00027070076099620796  0.9989438154418001  1.0000
  Ti  Ti9       1.0  0.0003487540806807735  0.003604033979392251  0.99908841112402  1.0000
  Ti  Ti10      1.0  0.005367939140300989  0.0036462381778522594  0.9995023883361817  1.0000
  Ti  Ti11      1.0  0.007848754111264063  0.0010946960230912301  0.9993046992299387  1.0000
  Ti  Ti12      1.0  0.0028487539209680383  0.0010946960432006258  0.9988721231859635  1.0000
  Ti  Ti13      1.0  0.008557877749425966  0.0002783122188467355  0.9995989047733946  1.0000
  Ti  Ti14      1.0  0.0036774181238485096  0.0002707008611678167  0.9991601036077051  1.0000
  Ti  Ti15      1.0  0.000389621681199266  0.0034923846851919243  0.999512715789006  1.0000
  Ti  Ti16      1.0  0.005339415578506875  0.003604034368619256  0.9990876036283005  1.0000
  Ti  Ti17      1.0  0.009510751565922428  0.006937367421402687  0.9992321990254462  1.0000
  Ti  Ti18      1.0  0.0044927210538070455  0.006915424568740371  0.999658410150767  1.0000
  Ti  Ti19      1.0  0.007015793069449219  0.006980755106156343  0.9994490312395465  1.0000
  Ti  Ti20      1.0  0.0020107516202927216  0.006937367721917512  0.9990159111350955  1.0000
  Ge  Ge1       1.0  0.0010418686976131355  0.009708466669946635  0.9991483762132548  1.0000
  Ge  Ge2       1.0  0.005980327606532137  0.009729298895075535  0.999585446507594  1.0000
  Ge  Ge3       1.0  0.002146301064651527  0.003604034155957717  0.9992439262139763  1.0000
  Ge  Ge4       1.0  0.0070968446773252165  0.003599425255313393  0.9996632042008061  1.0000
  Ge  Ge5       1.0  0.0015364315287789644  0.009515204185188692  0.9996388184808227  1.0000
  Ge  Ge6       1.0  0.006594084844885469  0.009708466283932666  0.9991961511135142  1.0000
  Ge  Ge7       1.0  0.008541868416699955  0.0036040340465505727  0.9993646640405346  1.0000
  Ge  Ge8       1.0  0.0035418686794897046  0.00360403415914979  0.9989320885366879  1.0000
  Ge  Ge9       1.0  0.004164495298405045  0.007557854169225832  0.9994047227978027  1.0000
  Ge  Ge10      1.0  0.009094084826762038  0.007499601641207518  0.998979863249916  1.0000
  Ge  Ge11      1.0  0.009651245308786147  0.007436383836241137  0.9994659211160757  1.0000
  Ge  Ge12      1.0  0.004646300819985209  0.007499601743623984  0.9990276384301467  1.0000
