data_image0
_chemical_formula_structural       COCa4In2Na2
_chemical_formula_sum              "C1 O1 Ca4 In2 Na2"
_cell_length_a       5.704753875732422
_cell_length_b       5.704753875732422
_cell_length_c       102.27095794677734
_cell_angle_alpha    90.0
_cell_angle_beta     90.0
_cell_angle_gamma    90.0

_space_group_name_H-M_alt    "P 1"
_space_group_IT_number       1

loop_
  _space_group_symop_operation_xyz
  'x, y, z'

loop_
  _atom_site_type_symbol
  _atom_site_label
  _atom_site_symmetry_multiplicity
  _atom_site_fract_x
  _atom_site_fract_y
  _atom_site_fract_z
  _atom_site_occupancy
  C   C1        1.0  0.004999996382296467  0.0025000016194773943  0.00016935906412741828  1.0000
  O   O1        1.0  0.004999996382296467  0.0025000016194773943  0.0002866940823473041  1.0000
  Ca  Ca1       1.0  0.004999996382296467  0.0025000016194773943  0.0  1.0000
  Ca  Ca2       1.0  0.009999998641728639  0.007500000940341713  0.9999999947547005  1.0000
  Ca  Ca3       1.0  3.499999766406734e-10  0.007499998981296478  0.9996063842759368  1.0000
  Ca  Ca4       1.0  0.005000000300386936  0.002499998680909542  0.9996063842759368  1.0000
  In  In1       1.0  0.005000000626894476  0.007499998981296478  0.9998140057599636  1.0000
  In  In2       1.0  3.499999766406734e-10  0.002499998680909542  0.9994091694660869  1.0000
  Na  Na1       1.0  0.009999999294743716  0.0024999994971783897  0.9998022900921598  1.0000
  Na  Na2       1.0  0.005000000300386936  0.007499998981296478  0.9994091694660869  1.0000
