data_image0
_chemical_formula_structural       COCo12Ti6
_chemical_formula_sum              "C1 O1 Co12 Ti6"
_cell_length_a       4.720309429039699
_cell_length_b       4.720309734344482
_cell_length_c       104.68704986572266
_cell_angle_alpha    90.0
_cell_angle_beta     90.0
_cell_angle_gamma    120.00000213956335

_space_group_name_H-M_alt    "P 1"
_space_group_IT_number       1

loop_
  _space_group_symop_operation_xyz
  'x, y, z'

loop_
  _atom_site_type_symbol
  _atom_site_label
  _atom_site_symmetry_multiplicity
  _atom_site_fract_x
  _atom_site_fract_y
  _atom_site_fract_z
  _atom_site_occupancy
  C   C1        1.0  0.0033342079730971693  0.0025128714058794965  4.528122060051418e-05  1.0000
  O   O1        1.0  0.0033342079730971693  0.0025128714058794965  0.00015990881144472036  1.0000
  Co  Co1       1.0  0.004160267127273601  0.004166666700836578  0.9990837886188403  1.0000
  Co  Co2       1.0  0.0074936004849081375  0.000833333561170911  0.999451944642187  1.0000
  Co  Co3       1.0  0.0008397775626376129  0.007487936788851126  0.9998182607778893  1.0000
  Co  Co4       1.0  0.009160267163725404  0.0041666668838089465  0.9990837886188403  1.0000
  Co  Co5       1.0  0.0024936002206325607  0.0008333334122625246  0.999451944642187  1.0000
  Co  Co6       1.0  0.0058027986112795995  0.007487913312519341  0.999818301202467  1.0000
  Co  Co7       1.0  0.005826933806090869  0.0025000001556663896  0.9992678664881736  1.0000
  Co  Co8       1.0  0.009160267163725404  0.00916666652965337  0.9996360227962006  1.0000
  Co  Co9       1.0  0.002491496268093509  0.005832322909682823  0.0  1.0000
  Co  Co10      1.0  0.004160267127273601  0.009166666322018355  0.9990837886188403  1.0000
  Co  Co11      1.0  0.0074936004849081375  0.005833333379653846  0.999451944642187  1.0000
  Co  Co12      1.0  0.0008397333078698045  0.0025248742823237216  0.9998182619166098  1.0000
  Ti  Ti1       1.0  0.0024936002206325607  0.005833333058106947  0.9995900031153571  1.0000
  Ti  Ti2       1.0  0.005828682581368591  0.0025008685009573002  0.9999414003044556  1.0000
  Ti  Ti3       1.0  0.009160267163725404  0.00916666652965337  0.9992218470920103  1.0000
  Ti  Ti4       1.0  0.009160267163725404  0.00916666652965337  0.9989457301456702  1.0000
  Ti  Ti5       1.0  0.0024936002206325607  0.005833333058106947  0.9993138861690171  1.0000
  Ti  Ti6       1.0  0.005826933806090869  0.0025000001556663896  0.9996820419076837  1.0000
