data_image0
_chemical_formula_structural       HIr8W8Ir8W8
_chemical_formula_sum              "H1 Ir16 W16"
_cell_length_a       5.287437450876786
_cell_length_b       7.393100395942171
_cell_length_c       105.93173217773438
_cell_angle_alpha    81.12048981137083
_cell_angle_beta     70.83950625009294
_cell_angle_gamma    66.66235658658398

_space_group_name_H-M_alt    "P 1"
_space_group_IT_number       1

loop_
  _space_group_symop_operation_xyz
  'x, y, z'

loop_
  _atom_site_type_symbol
  _atom_site_label
  _atom_site_symmetry_multiplicity
  _atom_site_fract_x
  _atom_site_fract_y
  _atom_site_fract_z
  _atom_site_occupancy
  H   H1        1.0  0.0030345880970272213  0.009677626884578017  0.9999155818836446  1.0000
  Ir  Ir1       1.0  0.006502894625949693  0.007247105623330772  0.9989505278358447  1.0000
  Ir  Ir2       1.0  0.004002894900071997  0.004747105447650217  0.9991201263376579  1.0000
  Ir  Ir3       1.0  0.009002895394928146  0.009747105250009592  0.9987809293228573  1.0000
  Ir  Ir4       1.0  0.0015028943918687328  0.002247105683720962  0.9986113309314868  1.0000
  Ir  Ir5       1.0  0.008497106858618755  0.007752893783747356  0.9991544389098694  1.0000
  Ir  Ir6       1.0  0.005997106089640302  0.005252894157068535  0.9986456435064919  1.0000
  Ir  Ir7       1.0  0.0009971057251717472  0.0002528942860839427  0.998984840801231  1.0000
  Ir  Ir8       1.0  0.003497105842212227  0.0027528942558888475  0.9988152420138923  1.0000
  W   W1        1.0  0.005236660380570376  0.001013339577152013  0.9990364286538641  1.0000
  W   W2        1.0  0.0027366605109569405  0.008513339143440643  0.9992060272845992  1.0000
  W   W3        1.0  0.0077366605536918175  0.0035133396155821346  0.9988668301462025  1.0000
  W   W4        1.0  0.00023666048785271637  0.006013339516761823  0.9986972315876672  1.0000
  W   W5        1.0  0.0022633399144701013  0.006486660263637484  0.9988989399848697  1.0000
  W   W6        1.0  0.009763339607372088  0.003986660362457797  0.9990685385495145  1.0000
  W   W7        1.0  0.004763340310511439  0.008986659890316306  0.9987293414779919  1.0000
  W   W8        1.0  0.00726333980718776  0.001486660324027675  0.9985597428533663  1.0000
  Ir  Ir9       1.0  0.006501886860525857  0.007273093169406511  0.9996270077107402  1.0000
  Ir  Ir10      1.0  0.0038577806049248007  0.0047909339030724005  0.9997906228627834  1.0000
  Ir  Ir11      1.0  0.009002895394928146  0.009747105250009592  0.9994593235205574  1.0000
  Ir  Ir12      1.0  0.0015028943918687328  0.002247105683720962  0.9992897254105222  1.0000
  Ir  Ir13      1.0  0.008421950283751195  0.0077809422823321445  0.9998252146692966  1.0000
  Ir  Ir14      1.0  0.005997106089640302  0.005252894157068535  0.9993240374228569  1.0000
  Ir  Ir15      1.0  0.0010897714275413391  0.00026947089590613536  0.999668407413965  1.0000
  Ir  Ir16      1.0  0.003497105842212227  0.0027528942558888475  0.9994936359302572  1.0000
  W   W9        1.0  0.005277155412038183  0.0011688477495391198  0.9997179544735024  1.0000
  W   W10       1.0  0.002990009931536429  0.008329643712280507  0.9998612831267915  1.0000
  W   W11       1.0  0.0077366605536918175  0.0035133396155821346  0.9995452243439027  1.0000
  W   W12       1.0  0.00023666048785271637  0.006013339516761823  0.9993756257853674  1.0000
  W   W13       1.0  0.0022633399144701013  0.006486660263637484  0.9995773341825698  1.0000
  W   W14       1.0  0.009532816782827374  0.004149944183652517  0.9997421380020216  1.0000
  W   W15       1.0  0.004763340310511439  0.008986659890316306  0.999407735675692  1.0000
  W   W16       1.0  0.00726333980718776  0.001486660324027675  0.9992381370510665  1.0000
