data_image0
_chemical_formula_structural       COFe8Pd24
_chemical_formula_sum              "C1 O1 Fe8 Pd24"
_cell_length_a       6.7047810554504395
_cell_length_b       5.474431037902832
_cell_length_c       107.92797088623047
_cell_angle_alpha    90.0
_cell_angle_beta     90.0
_cell_angle_gamma    90.0

_space_group_name_H-M_alt    "P 1"
_space_group_IT_number       1

loop_
  _space_group_symop_operation_xyz
  'x, y, z'

loop_
  _atom_site_type_symbol
  _atom_site_label
  _atom_site_symmetry_multiplicity
  _atom_site_fract_x
  _atom_site_fract_y
  _atom_site_fract_z
  _atom_site_occupancy
  C   C1        1.0  0.002777777716042556  0.003749999850292412  6.286522268842071e-05  1.0000
  O   O1        1.0  0.002777777716042556  0.003749999850292412  0.00017405071260506697  1.0000
  Fe  Fe1       1.0  0.0016666666574063835  0.0012499999217437609  0.9994875135724199  1.0000
  Fe  Fe2       1.0  0.0016666666574063835  0.006249999863902193  0.9999267875743081  1.0000
  Fe  Fe3       1.0  0.008333333148127668  0.0012499999217437609  0.9997803627229244  1.0000
  Fe  Fe4       1.0  0.005000000111123399  0.006249999863902193  0.9996339378715405  1.0000
  Fe  Fe5       1.0  0.008333333148127668  0.0012499999217437609  0.9989018144430165  1.0000
  Fe  Fe6       1.0  0.008333333148127668  0.006249999863902193  0.9993410887210362  1.0000
  Fe  Fe7       1.0  0.005000000111123399  0.0012499999217437609  0.9991946638696525  1.0000
  Fe  Fe8       1.0  0.0016666666574063835  0.006249999863902193  0.9990482392944002  1.0000
  Pd  Pd1       1.0  0.0016666666574063835  0.0012499999217437609  0.9999267875743081  1.0000
  Pd  Pd2       1.0  0.008333333148127668  0.006249999863902193  0.9997803627229244  1.0000
  Pd  Pd3       1.0  0.005000000111123399  0.0012499999217437609  0.9996339378715405  1.0000
  Pd  Pd4       1.0  0.0016666666574063835  0.006249999863902193  0.9994875135724199  1.0000
  Pd  Pd5       1.0  0.005000000111123399  0.008749999537267456  0.9998535751486163  1.0000
  Pd  Pd6       1.0  0.0016666666574063835  0.003749999850292412  0.9997071502972324  1.0000
  Pd  Pd7       1.0  0.008333333148127668  0.008749999537267456  0.9995607254458487  1.0000
  Pd  Pd8       1.0  0.008333333148127668  0.003749999850292412  0.0  1.0000
  Pd  Pd9       1.0  0.005000000111123399  0.003749999850292412  0.9998535751486163  1.0000
  Pd  Pd10      1.0  0.0016666666574063835  0.008749999537267456  0.9997071502972324  1.0000
  Pd  Pd11      1.0  0.008333333148127668  0.003749999850292412  0.9995607254458487  1.0000
  Pd  Pd12      1.0  0.008333333148127668  0.008749999537267456  0.0  1.0000
  Pd  Pd13      1.0  0.008333333148127668  0.0012499999217437609  0.9993410887210362  1.0000
  Pd  Pd14      1.0  0.005000000111123399  0.006249999863902193  0.9991946638696525  1.0000
  Pd  Pd15      1.0  0.0016666666574063835  0.0012499999217437609  0.9990482392944002  1.0000
  Pd  Pd16      1.0  0.008333333148127668  0.006249999863902193  0.9989018144430165  1.0000
  Pd  Pd17      1.0  0.0016666666574063835  0.008749999537267456  0.9992678762953443  1.0000
  Pd  Pd18      1.0  0.008333333148127668  0.003749999850292412  0.9991214514439606  1.0000
  Pd  Pd19      1.0  0.005000000111123399  0.008749999537267456  0.9989750268687084  1.0000
  Pd  Pd20      1.0  0.005000000111123399  0.003749999850292412  0.9994143011467281  1.0000
  Pd  Pd21      1.0  0.0016666666574063835  0.003749999850292412  0.9992678762953443  1.0000
  Pd  Pd22      1.0  0.008333333148127668  0.008749999537267456  0.9991214514439606  1.0000
  Pd  Pd23      1.0  0.005000000111123399  0.003749999850292412  0.9989750268687084  1.0000
  Pd  Pd24      1.0  0.005000000111123399  0.008749999537267456  0.9994143011467281  1.0000
