data_image0
_chemical_formula_structural       COFe2Sb4Fe2Sb4Fe2Sb4
_chemical_formula_sum              "C1 O1 Fe6 Sb12"
_cell_length_a       5.793136119842529
_cell_length_b       7.314010413858426
_cell_length_c       102.83985900878906
_cell_angle_alpha    116.6794987015611
_cell_angle_beta     90.0
_cell_angle_gamma    90.0

_space_group_name_H-M_alt    "P 1"
_space_group_IT_number       1

loop_
  _space_group_symop_operation_xyz
  'x, y, z'

loop_
  _atom_site_type_symbol
  _atom_site_label
  _atom_site_symmetry_multiplicity
  _atom_site_fract_x
  _atom_site_fract_y
  _atom_site_fract_z
  _atom_site_occupancy
  C   C1        1.0  0.0034828060793786397  0.007719260337109329  0.00031716763277372527  1.0000
  O   O1        1.0  0.0034828060793786397  0.007719260337109329  0.0004338535639847427  1.0000
  Fe  Fe1       1.0  0.0009823850182888228  0.0007240777685242096  0.9993824508615998  1.0000
  Fe  Fe2       1.0  0.0059823849829209385  0.005724077705821389  0.9993824506741298  1.0000
  Sb  Sb1       1.0  0.002947154974484914  0.004275922453785787  0.9994958719316475  1.0000
  Sb  Sb2       1.0  0.009017614991356964  0.007172233527882626  0.9992690297246082  1.0000
  Sb  Sb3       1.0  0.004017615107106402  0.00927592224857656  0.9994958717396267  1.0000
  Sb  Sb4       1.0  0.007947155180261694  0.002172233305572629  0.9992690296131834  1.0000
  Fe  Fe3       1.0  0.0009823850182888228  0.0007240777685242096  0.999701780691557  1.0000
  Fe  Fe4       1.0  0.0059823849829209385  0.005724077705821389  0.9997017807938804  1.0000
  Sb  Sb5       1.0  0.002947154974484914  0.004275922453785787  0.9998152017616047  1.0000
  Sb  Sb6       1.0  0.009017614991356964  0.007172233527882626  0.9995883598443588  1.0000
  Sb  Sb7       1.0  0.004017615107106402  0.00927592224857656  0.9998152018593773  1.0000
  Sb  Sb8       1.0  0.007947155180261694  0.002172233305572629  0.9995883597329341  1.0000
  Fe  Fe5       1.0  0.0012591629056158706  0.0007592118684681446  1.6200407220334697e-05  1.0000
  Fe  Fe6       1.0  0.005704761240494862  0.005758681111900574  1.6176897644037984e-05  1.0000
  Sb  Sb9       1.0  0.0033678180148434197  0.004030041326767222  0.00012869132524703021  1.0000
  Sb  Sb10      1.0  0.008966792628120944  0.007212774320959928  0.9999185584611764  1.0000
  Sb  Sb11      1.0  0.0035977941439138596  0.009028514592911588  0.00012866325171287976  1.0000
  Sb  Sb12      1.0  0.007998262415727207  0.0022132268415093067  0.9999185374523846  1.0000
