data_image0
_chemical_formula_structural       HGe8As8Se8
_chemical_formula_sum              "H1 Ge8 As8 Se8"
_cell_length_a       5.206576824188232
_cell_length_b       10.50735092163086
_cell_length_c       108.57852935791016
_cell_angle_alpha    90.0
_cell_angle_beta     90.0
_cell_angle_gamma    90.0

_space_group_name_H-M_alt    "P 1"
_space_group_IT_number       1

loop_
  _space_group_symop_operation_xyz
  'x, y, z'

loop_
  _atom_site_type_symbol
  _atom_site_label
  _atom_site_symmetry_multiplicity
  _atom_site_fract_x
  _atom_site_fract_y
  _atom_site_fract_z
  _atom_site_occupancy
  H   H1        1.0  0.0005872373076950023  0.002031144658676413  0.0001054903417429025  1.0000
  Ge  Ge1       1.0  0.002566823266358689  0.00022974655673135708  0.9993527741600473  1.0000
  Ge  Ge2       1.0  0.002566823266358689  0.005229746448596247  0.9993141102145542  1.0000
  Ge  Ge3       1.0  0.007566823359373304  0.00022974655673135708  0.9987219348788313  1.0000
  Ge  Ge4       1.0  0.007566823359373304  0.005229746448596247  0.9987605988243244  1.0000
  Ge  Ge5       1.0  0.0030496830611422324  0.0027297465691403042  0.9987412668515778  1.0000
  Ge  Ge6       1.0  0.002083963292700886  0.0077297465053228626  0.9987412668515778  1.0000
  Ge  Ge7       1.0  0.007083963027966982  0.0077297465053228626  0.9993334421873007  1.0000
  Ge  Ge8       1.0  0.008049682975282588  0.0027297465691403042  0.9993334421873007  1.0000
  As  As1       1.0  0.001761711833647877  0.004292036007037186  0.9999780209698765  1.0000
  As  As2       1.0  0.0008603808958215247  0.001079606218419159  0.9988742356470862  1.0000
  As  As3       1.0  0.004273265636895854  0.009379886856044007  0.9988742356470862  1.0000
  As  As4       1.0  0.003691159426775369  0.0060779220832263845  0.999983040607507  1.0000
  As  As5       1.0  0.009273265193287689  0.006079606154601717  0.9994664109828091  1.0000
  As  As6       1.0  0.009273265193287689  0.009379886856044007  0.9992004733917924  1.0000
  As  As7       1.0  0.00586038080996188  0.001079606218419159  0.9992004733917924  1.0000
  As  As8       1.0  0.00586038080996188  0.004379886742590778  0.9994664109828091  1.0000
  Se  Se1       1.0  0.009412762073400058  0.009770253182680756  6.017636450702503e-06  1.0000
  Se  Se2       1.0  0.009310584803319137  0.006811114287927596  0.9988992690586375  1.0000
  Se  Se3       1.0  0.0058230611999304325  0.0036483786092648992  0.9988992690586375  1.0000
  Se  Se4       1.0  0.005693422080266083  0.0008355371221349429  0.0  1.0000
  Se  Se5       1.0  0.0008230612857900776  0.0018111143517450378  0.9994914443943603  1.0000
  Se  Se6       1.0  0.0008230612857900776  0.0036483786092648992  0.9991754399802412  1.0000
  Se  Se7       1.0  0.0043105852469273  0.006811114287927596  0.9991754399802412  1.0000
  Se  Se8       1.0  0.0043105852469273  0.008648378722718128  0.9994914443943603  1.0000
