data_image0
_chemical_formula_structural       COAl3Rh3Al3Rh3Al3Rh3Al3Rh3
_chemical_formula_sum              "C1 O1 Al12 Rh12"
_cell_length_a       6.75075331135424
_cell_length_b       6.038057327270508
_cell_length_c       99.8868637084961
_cell_angle_alpha    90.0
_cell_angle_beta     108.43494882292202
_cell_angle_gamma    90.0

_space_group_name_H-M_alt    "P 1"
_space_group_IT_number       1

loop_
  _space_group_symop_operation_xyz
  'x, y, z'

loop_
  _atom_site_type_symbol
  _atom_site_label
  _atom_site_symmetry_multiplicity
  _atom_site_fract_x
  _atom_site_fract_y
  _atom_site_fract_z
  _atom_site_occupancy
  C   C1        1.0  0.00252190500811304  0.003749999987660633  0.00021840099715402325  1.0000
  O   O1        1.0  0.00252190500811304  0.003749999987660633  0.0003385365612164838  1.0000
  Al  Al1       1.0  0.0016666667481023347  0.0012500000215938925  0.9998219004889911  1.0000
  Al  Al2       1.0  0.008333333449670001  0.0012500000215938925  0.9999643800617463  1.0000
  Al  Al3       1.0  0.0049999999534653325  0.0012500000215938925  0.9996794208665092  1.0000
  Rh  Rh1       1.0  0.0016666667481023347  0.003749999987660633  3.5619894742757064e-05  1.0000
  Rh  Rh2       1.0  0.008333333449670001  0.003749999987660633  0.9997506606559946  1.0000
  Rh  Rh3       1.0  0.0049999999534653325  0.003749999987660633  0.9998931402722607  1.0000
  Al  Al4       1.0  0.0016666667481023347  0.0012500000215938925  0.9993944619758486  1.0000
  Al  Al5       1.0  0.008333333449670001  0.0012500000215938925  0.9995369412502431  1.0000
  Al  Al6       1.0  0.0049999999534653325  0.0012500000215938925  0.9992519823533667  1.0000
  Rh  Rh4       1.0  0.0016666667481023347  0.003749999987660633  0.9996081810832395  1.0000
  Rh  Rh5       1.0  0.008333333449670001  0.003749999987660633  0.9993232221428522  1.0000
  Rh  Rh6       1.0  0.0049999999534653325  0.003749999987660633  0.9994657017591183  1.0000
  Al  Al7       1.0  0.0016666667481023347  0.006250000493574684  0.9998219004889911  1.0000
  Al  Al8       1.0  0.008333333449670001  0.006250000493574684  0.9999643800617463  1.0000
  Al  Al9       1.0  0.0049999999534653325  0.006250000493574684  0.9996794208665092  1.0000
  Rh  Rh7       1.0  0.0016666667481023347  0.008750000074036203  3.5619894742757064e-05  1.0000
  Rh  Rh8       1.0  0.008333333449670001  0.008750000074036203  0.9997506606559946  1.0000
  Rh  Rh9       1.0  0.0049999999534653325  0.008750000074036203  0.9998931402722607  1.0000
  Al  Al10      1.0  0.0016666667481023347  0.006250000493574684  0.9993944619758486  1.0000
  Al  Al11      1.0  0.008333333449670001  0.006250000493574684  0.9995369412502431  1.0000
  Al  Al12      1.0  0.0049999999534653325  0.006250000493574684  0.9992519823533667  1.0000
  Rh  Rh10      1.0  0.0016666667481023347  0.008750000074036203  0.9996081810832395  1.0000
  Rh  Rh11      1.0  0.008333333449670001  0.008750000074036203  0.9993232221428522  1.0000
  Rh  Rh12      1.0  0.0049999999534653325  0.008750000074036203  0.9994657017591183  1.0000
