data_image0
_chemical_formula_structural       HTi8Si8Rh8Ti8Si8Rh8
_chemical_formula_sum              "H1 Ti16 Si16 Rh16"
_cell_length_a       9.645065968633485
_cell_length_b       7.692078113555908
_cell_length_c       108.58026885986328
_cell_angle_alpha    90.0
_cell_angle_beta     98.46807836843264
_cell_angle_gamma    90.0

_space_group_name_H-M_alt    "P 1"
_space_group_IT_number       1

loop_
  _space_group_symop_operation_xyz
  'x, y, z'

loop_
  _atom_site_type_symbol
  _atom_site_label
  _atom_site_symmetry_multiplicity
  _atom_site_fract_x
  _atom_site_fract_y
  _atom_site_fract_z
  _atom_site_occupancy
  H   H1        1.0  0.00891831334589982  0.003750000309953403  0.00011665866625527139  1.0000
  Ti  Ti1       1.0  0.004226472368268078  0.0012499995786570922  0.9998493465543299  1.0000
  Ti  Ti2       1.0  0.009181959224665954  0.0012499998208081885  0.9994082349028134  1.0000
  Ti  Ti3       1.0  0.0060067964606925275  0.0012499998208081885  0.9992461366210423  1.0000
  Ti  Ti4       1.0  0.0010067962888746914  0.0012499998208081885  0.9996902810830919  1.0000
  Ti  Ti5       1.0  0.003936924950693904  0.0037499998256512105  0.9993864688248373  1.0000
  Ti  Ti6       1.0  0.008977135963115071  0.003750000309953403  0.9998359321789507  1.0000
  Ti  Ti7       1.0  0.005761762749033397  0.0037499998256512105  0.9996685153440861  1.0000
  Ti  Ti8       1.0  0.0007617623819680193  0.0037499998256512105  0.9992243705456202  1.0000
  Si  Si1       1.0  0.0043058791527558786  0.0037499998256512105  2.8799117803297522e-05  1.0000
  Si  Si2       1.0  0.009238238156915194  0.0037499998256512105  0.9995871681020417  1.0000
  Si  Si3       1.0  0.005705483426289073  0.0012499998208081885  0.9994895821397497  1.0000
  Si  Si4       1.0  0.0008508589114276681  0.0012499999418837367  0.9999416504376613  1.0000
  Si  Si5       1.0  0.008021151675337615  0.0037499998256512105  0.9992511358616947  1.0000
  Si  Si6       1.0  0.00302115169876732  0.0037499998256512105  0.9996952803262982  1.0000
  Si  Si7       1.0  0.0019225693455537343  0.0012499998208081885  0.9993814695790769  1.0000
  Si  Si8       1.0  0.006915225866854098  0.0012499998208081885  0.9998236318631247  1.0000
  Rh  Rh1       1.0  0.003095621649177319  0.0012499998208081885  6.757048862167186e-05  1.0000
  Rh  Rh2       1.0  0.00791898176101811  0.0012499998208081885  0.9996346422727707  1.0000
  Rh  Rh3       1.0  0.0063773731698214  0.0037499998256512105  0.9999370602036606  1.0000
  Rh  Rh4       1.0  0.0013881207894008664  0.0037499998256512105  0.9994986577113157  1.0000
  Rh  Rh5       1.0  0.003555600254920188  0.0012499998208081885  0.9995780921940594  1.0000
  Rh  Rh6       1.0  0.008650953858901144  0.0012500003051103814  1.431228953431928e-06  1.0000
  Rh  Rh7       1.0  0.007024740212681241  0.0037499998256512105  0.9994421074251832  1.0000
  Rh  Rh8       1.0  0.0020492555173768686  0.0037499998256512105  0.9998845368050499  1.0000
  Ti  Ti9       1.0  0.004226472368268078  0.006249999225116491  0.9998493465543299  1.0000
  Ti  Ti10      1.0  0.009181959224665954  0.0062499997094186835  0.9994082349028134  1.0000
  Ti  Ti11      1.0  0.0060067964606925275  0.0062499997094186835  0.9992461366210423  1.0000
  Ti  Ti12      1.0  0.0010067962888746914  0.0062499997094186835  0.9996902810830919  1.0000
  Ti  Ti13      1.0  0.003936924950693904  0.008749999108883964  0.9993864688248373  1.0000
  Ti  Ti14      1.0  0.008977135963115071  0.00875000007748835  0.9998359321789507  1.0000
  Ti  Ti15      1.0  0.005761762749033397  0.008749999108883964  0.9996685153440861  1.0000
  Ti  Ti16      1.0  0.0007617623819680193  0.008749999108883964  0.9992243705456202  1.0000
  Si  Si9       1.0  0.0043058791527558786  0.008749999108883964  2.8799117803297522e-05  1.0000
  Si  Si10      1.0  0.009238238156915194  0.008749999108883964  0.9995871681020417  1.0000
  Si  Si11      1.0  0.005705483426289073  0.0062499997094186835  0.9994895821397497  1.0000
  Si  Si12      1.0  0.0008508589114276681  0.0062499997094186835  0.9999416504376613  1.0000
  Si  Si13      1.0  0.008021151675337615  0.008749999108883964  0.9992511358616947  1.0000
  Si  Si14      1.0  0.00302115169876732  0.008749999108883964  0.9996952803262982  1.0000
  Si  Si15      1.0  0.0019225693455537343  0.0062499997094186835  0.9993814695790769  1.0000
  Si  Si16      1.0  0.006915225866854098  0.0062499997094186835  0.9998236318631247  1.0000
  Rh  Rh9       1.0  0.003095621649177319  0.0062499997094186835  6.757048862167186e-05  1.0000
  Rh  Rh10      1.0  0.00791898176101811  0.0062499997094186835  0.9996346422727707  1.0000
  Rh  Rh11      1.0  0.0063773731698214  0.00875000007748835  0.9999370602036606  1.0000
  Rh  Rh12      1.0  0.0013881207894008664  0.008749999108883964  0.9994986577113157  1.0000
  Rh  Rh13      1.0  0.003555600254920188  0.0062499997094186835  0.9995780921940594  1.0000
  Rh  Rh14      1.0  0.008650953858901144  0.0062500001937208765  1.431228953431928e-06  1.0000
  Rh  Rh15      1.0  0.007024740212681241  0.008749999108883964  0.9994421074251832  1.0000
  Rh  Rh16      1.0  0.0020492555173768686  0.00875000007748835  0.9998845368050499  1.0000
