data_image0
_chemical_formula_structural       COSn10Au10Sn10Au10
_chemical_formula_sum              "C1 O1 Sn20 Au20"
_cell_length_a       11.78002741929397
_cell_length_b       7.238734273207934
_cell_length_c       113.43240356445312
_cell_angle_alpha    64.3732371006769
_cell_angle_beta     83.32484794537488
_cell_angle_gamma    62.292364116380604

_space_group_name_H-M_alt    "P 1"
_space_group_IT_number       1

loop_
  _space_group_symop_operation_xyz
  'x, y, z'

loop_
  _atom_site_type_symbol
  _atom_site_label
  _atom_site_symmetry_multiplicity
  _atom_site_fract_x
  _atom_site_fract_y
  _atom_site_fract_z
  _atom_site_occupancy
  C   C1        1.0  0.005331863795176871  0.004462114375716371  0.9998532395934515  1.0000
  O   O1        1.0  0.005331863795176871  0.004462114375716371  0.9999590296846566  1.0000
  Sn  Sn1       1.0  0.0027499998519869523  0.009560308410814358  0.9989509617755257  1.0000
  Sn  Sn2       1.0  0.0067500000185405215  0.007560308436573819  0.9990785924810078  1.0000
  Sn  Sn3       1.0  0.008750000305071509  0.0015603083528555703  0.9988233312631285  1.0000
  Sn  Sn4       1.0  0.0007499999303771413  0.00556030846233328  0.9985680693227585  1.0000
  Sn  Sn5       1.0  0.004750000096930711  0.003560308488092741  0.9986957000282407  1.0000
  Sn  Sn6       1.0  0.005750000188385931  0.007226975214864817  0.9987807872956462  1.0000
  Sn  Sn7       1.0  0.009750000438113957  0.005226974918631015  0.9989084180090115  1.0000
  Sn  Sn8       1.0  0.001750000021832362  0.009226975189105356  0.9986531565901641  1.0000
  Sn  Sn9       1.0  0.003750000031554389  0.0032269749443904756  0.9990360488159957  1.0000
  Sn  Sn10      1.0  0.007749999900505384  0.0012269748896516209  0.9985255255659023  1.0000
  Au  Au1       1.0  0.003249999985826779  0.0013936415810044376  0.99867442846433  1.0000
  Au  Au2       1.0  0.007249999662697487  0.00939364212195312  0.998802059392708  1.0000
  Au  Au3       1.0  0.009250000073990159  0.003393641555244977  0.9985467976611895  1.0000
  Au  Au4       1.0  0.0012500000592792079  0.007393641503726055  0.9989296902077713  1.0000
  Au  Au5       1.0  0.005249999824262133  0.005393641851478779  0.999057320909214  1.0000
  Au  Au6       1.0  0.004249999701790254  0.008393641812839588  0.9985467978214666  1.0000
  Au  Au7       1.0  0.008249999868343823  0.006393641838599048  0.9986744285269488  1.0000
  Au  Au8       1.0  0.0002500000213441358  0.00039364159388416816  0.9990573208456343  1.0000
  Au  Au9       1.0  0.0022500001817510875  0.004393641542365247  0.9988020593341289  1.0000
  Au  Au10      1.0  0.006249999988321241  0.0023936417291213386  0.998929690039513  1.0000
  Sn  Sn11      1.0  0.0028159046824674083  0.00960635859931179  0.9995908766269938  1.0000
  Sn  Sn12      1.0  0.006455277844852939  0.007964312739640267  0.9997022546305824  1.0000
  Sn  Sn13      1.0  0.008625173027259367  0.0016927226083679919  0.9994613520049035  1.0000
  Sn  Sn14      1.0  0.0007499999303771413  0.00556030846233328  0.9992062232841484  1.0000
  Sn  Sn15      1.0  0.004750000096930711  0.003560308488092741  0.9993338539896306  1.0000
  Sn  Sn16      1.0  0.005750000188385931  0.007226975214864817  0.9994189412570361  1.0000
  Sn  Sn17      1.0  0.009675858773799211  0.005566232494385468  0.999560044539674  1.0000
  Sn  Sn18      1.0  0.001750000021832362  0.009226975189105356  0.999291310551554  1.0000
  Sn  Sn19      1.0  0.003752546141138325  0.003243608150375903  0.9996756597993659  1.0000
  Sn  Sn20      1.0  0.007749999900505384  0.0012269748896516209  0.9991636800527562  1.0000
  Au  Au11      1.0  0.003249999985826779  0.0013936415810044376  0.9993125824257199  1.0000
  Au  Au12      1.0  0.007249999662697487  0.00939364212195312  0.9994402133540979  1.0000
  Au  Au13      1.0  0.009250000073990159  0.003393641555244977  0.9991849516225793  1.0000
  Au  Au14      1.0  0.0012964609959600069  0.007503741948107669  0.9995644094682743  1.0000
  Au  Au15      1.0  0.0051543070014905285  0.0057507951688027786  0.9996829207375214  1.0000
  Au  Au16      1.0  0.004249999701790254  0.008393641812839588  0.9991849517828564  1.0000
  Au  Au17      1.0  0.008249999868343823  0.006393641838599048  0.9993125824883387  1.0000
  Au  Au18      1.0  0.0002509380092239363  0.0011031007004564165  0.9996463918933007  1.0000
  Au  Au19      1.0  0.0022500001817510875  0.004393641542365247  0.9994402132955188  1.0000
  Au  Au20      1.0  0.0061224141333780175  0.0025362274298178335  0.9995671811695237  1.0000
