data_image0
_chemical_formula_structural       COIn12Ni12In12Ni12
_chemical_formula_sum              "C1 O1 In24 Ni24"
_cell_length_a       9.238699913024902
_cell_length_b       10.34120372338772
_cell_length_c       102.00379943847656
_cell_angle_alpha    104.94541427245971
_cell_angle_beta     90.0
_cell_angle_gamma    63.46825147747777

_space_group_name_H-M_alt    "P 1"
_space_group_IT_number       1

loop_
  _space_group_symop_operation_xyz
  'x, y, z'

loop_
  _atom_site_type_symbol
  _atom_site_label
  _atom_site_symmetry_multiplicity
  _atom_site_fract_x
  _atom_site_fract_y
  _atom_site_fract_z
  _atom_site_occupancy
  C   C1        1.0  0.0035387566619576732  0.0005025845593936138  0.00010687703371761424  1.0000
  O   O1        1.0  0.0035387566619576732  0.0005025845593936138  0.00022451994883209355  1.0000
  In  In1       1.0  0.004585793243132603  0.00754696104555396  0.9994215335533444  1.0000
  In  In2       1.0  0.007085793196878786  0.0025469611380615933  0.9992908039700096  1.0000
  In  In3       1.0  0.002085793245265988  0.0025469611380615933  0.9990293447868158  1.0000
  In  In4       1.0  0.009585793597972082  0.00754696104555396  0.9991600743701506  1.0000
  In  In5       1.0  0.007919127081843376  0.00754696104555396  0.9994215335533444  1.0000
  In  In6       1.0  0.00041912672913728183  0.0025469611380615933  0.9992908039700096  1.0000
  In  In7       1.0  0.00541912668075008  0.0025469611380615933  0.9990293447868158  1.0000
  In  In8       1.0  0.002919126727003897  0.00754696104555396  0.9991600743701506  1.0000
  In  In9       1.0  0.007502460490026606  0.005046961196930087  0.9990947095812317  1.0000
  In  In10      1.0  2.459902495120348e-06  4.696129600786373e-05  0.9994868983644563  1.0000
  In  In11      1.0  0.005002460085648239  4.696129600786373e-05  0.9992254391812625  1.0000
  In  In12      1.0  0.0025024601351871277  0.005046961196930087  0.9993561687644256  1.0000
  Ni  Ni1       1.0  2.4599577673883205e-06  0.005046961196930087  0.9992254393189131  1.0000
  Ni  Ni2       1.0  0.0025024599082284996  4.696129600786373e-05  0.99909470973575  1.0000
  Ni  Ni3       1.0  0.007502459859841298  4.696129600786373e-05  0.9993561689189437  1.0000
  Ni  Ni4       1.0  0.0050024599093801865  0.005046961196930087  0.9994868985021068  1.0000
  Ni  Ni5       1.0  0.007502460490026606  0.005046961196930087  0.9993561687644256  1.0000
  Ni  Ni6       1.0  2.459902495120348e-06  4.696129600786373e-05  0.9992254391812625  1.0000
  Ni  Ni7       1.0  0.005002460085648239  4.696129600786373e-05  0.9994868983644563  1.0000
  Ni  Ni8       1.0  0.0025024601351871277  0.005046961196930087  0.9990947095812317  1.0000
  Ni  Ni9       1.0  0.0050024599093801865  0.005046961196930087  0.9992254393189131  1.0000
  Ni  Ni10      1.0  0.007502459859841298  4.696129600786373e-05  0.99909470973575  1.0000
  Ni  Ni11      1.0  0.0025024599082284996  4.696129600786373e-05  0.9993561689189437  1.0000
  Ni  Ni12      1.0  2.4599577673883205e-06  0.005046961196930087  0.9994868985021068  1.0000
  In  In13      1.0  0.0044373877182071544  0.007711104065879321  0.9999679881606449  1.0000
  In  In14      1.0  0.007056017899988983  0.0024946114892703524  0.9998282779722657  1.0000
  In  In15      1.0  0.002085793245265988  0.0025469611380615933  0.9995522631532033  1.0000
  In  In16      1.0  0.009585793597972082  0.00754696104555396  0.9996829927365382  1.0000
  In  In17      1.0  0.007903662662422773  0.007711335334960786  0.9999679088941127  1.0000
  In  In18      1.0  0.0004997972250193253  0.002494823205602203  0.9998283682367204  1.0000
  In  In19      1.0  0.00541912668075008  0.0025469611380615933  0.9995522631532033  1.0000
  In  In20      1.0  0.002919126727003897  0.00754696104555396  0.9996829927365382  1.0000
  In  In21      1.0  0.007502460490026606  0.005046961196930087  0.9996176279476193  1.0000
  In  In22      1.0  0.00999754006189416  5.89197997211941e-05  1.540512202046402e-06  1.0000
  In  In23      1.0  0.004988826192351629  7.511779420500098e-05  0.9997419811691144  1.0000
  In  In24      1.0  0.002483901266903713  0.005079921666420518  0.9998834987628076  1.0000
  Ni  Ni13      1.0  0.009976998372272526  0.005043609056716558  0.999747797019317  1.0000
  Ni  Ni14      1.0  0.0025024599082284996  4.696129600786373e-05  0.9996176278099688  1.0000
  Ni  Ni15      1.0  0.007523393142383777  0.00995260016551533  0.9998750275034983  1.0000
  Ni  Ni16      1.0  0.005044142641907061  0.005110087984917609  0.9999815487121159  1.0000
  Ni  Ni17      1.0  0.007494492924493606  0.00506093825923537  0.9998754229825517  1.0000
  Ni  Ni18      1.0  0.009992457934955163  6.960179665700156e-05  0.9997442420814342  1.0000
  Ni  Ni19      1.0  0.005064313072204462  0.009925027004155321  0.9999841275512951  1.0000
  Ni  Ni20      1.0  0.0025024601351871277  0.005046961196930087  0.9996176279476193  1.0000
  Ni  Ni21      1.0  0.005029053908759815  0.005045341051892113  0.999747679273758  1.0000
  Ni  Ni22      1.0  0.007502459859841298  4.696129600786373e-05  0.9996176278099688  1.0000
  Ni  Ni23      1.0  0.002576752861054597  0.009953038315302396  0.9998749676701518  1.0000
  Ni  Ni24      1.0  0.0098927285199316  0.00511068886404018  0.9999817555010129  1.0000
