data_image0
_chemical_formula_structural       COCa8Al8Au8
_chemical_formula_sum              "C1 O1 Ca8 Al8 Au8"
_cell_length_a       8.71358134357643
_cell_length_b       7.876174449920654
_cell_length_c       104.85432434082031
_cell_angle_alpha    90.0
_cell_angle_beta     116.29898912714543
_cell_angle_gamma    90.0

_space_group_name_H-M_alt    "P 1"
_space_group_IT_number       1

loop_
  _space_group_symop_operation_xyz
  'x, y, z'

loop_
  _atom_site_type_symbol
  _atom_site_label
  _atom_site_symmetry_multiplicity
  _atom_site_fract_x
  _atom_site_fract_y
  _atom_site_fract_z
  _atom_site_occupancy
  C   C1        1.0  0.007494314471113314  0.007962338395226648  0.0002759308539910861  1.0000
  O   O1        1.0  0.007494314471113314  0.007962338395226648  0.00039037557903351714  1.0000
  Ca  Ca1       1.0  0.0032733294616173786  0.0071388508485073585  0.00015537320246809783  1.0000
  Ca  Ca2       1.0  0.008452172549825356  0.006828216952468997  0.9997514691680794  1.0000
  Ca  Ca3       1.0  0.005866827678378657  0.00813280401706429  0.9999519402522798  1.0000
  Ca  Ca4       1.0  0.0009521730434039028  0.00817178342591676  0.9995437146203735  1.0000
  Ca  Ca5       1.0  0.0060946525667900375  0.0031717829056363434  0.9995318745812299  1.0000
  Ca  Ca6       1.0  0.0010856299462006823  0.0031549629492233556  0.9999500503346695  1.0000
  Ca  Ca7       1.0  0.003594652433261542  0.0018282171416618763  0.9997396288352283  1.0000
  Ca  Ca8       1.0  0.008470526995310966  0.0018353192058469983  0.0001464161192245708  1.0000
  Al  Al1       1.0  0.00679738776372946  0.009317236576159819  0.9994734759391669  1.0000
  Al  Al2       1.0  0.0017207153153170887  0.009315568840931774  0.9998839652636612  1.0000
  Al  Al3       1.0  0.0027494373242726846  0.000682763695804943  0.9993943589842954  1.0000
  Al  Al4       1.0  0.007749437352885934  0.000682763695804943  0.9998098678101425  1.0000
  Al  Al5       1.0  0.005267631907535896  0.004384561524313404  2.5715666951309326e-05  1.0000
  Al  Al6       1.0  0.00024943744409066515  0.004317236292370501  0.9996021132476217  1.0000
  Al  Al7       1.0  0.004297388107088449  0.005682763802225937  0.9996812304949496  1.0000
  Al  Al8       1.0  0.009200475776526953  0.005708474168512432  9.440098030898573e-05  1.0000
  Au  Au1       1.0  0.004480132344746341  0.0011564072996893906  5.312901844535182e-05  1.0000
  Au  Au2       1.0  0.00956545398223482  0.0011244055607041244  0.999658953530875  1.0000
  Au  Au3       1.0  0.004981371611268059  0.008875594179155667  0.9996243902359927  1.0000
  Au  Au4       1.0  0.009750562628038566  0.008785824995981543  2.7972926528192574e-05  1.0000
  Au  Au5       1.0  0.007481371744796554  0.006124405726247893  0.9994166356977683  1.0000
  Au  Au6       1.0  0.0024813717161833054  0.006124405726247893  0.9998321444987702  1.0000
  Au  Au7       1.0  0.0020654538200930747  0.0038755946048396445  0.9994511992432523  1.0000
  Au  Au8       1.0  0.007065453848706323  0.0038755946048396445  0.9998667080690994  1.0000
