data_image0
_chemical_formula_structural       HGa36Co12
_chemical_formula_sum              "H1 Ga36 Co12"
_cell_length_a       6.313610076904297
_cell_length_b       14.471782403171979
_cell_length_c       106.27767944335938
_cell_angle_alpha    69.98450106126815
_cell_angle_beta     90.0
_cell_angle_gamma    90.0

_space_group_name_H-M_alt    "P 1"
_space_group_IT_number       1

loop_
  _space_group_symop_operation_xyz
  'x, y, z'

loop_
  _atom_site_type_symbol
  _atom_site_label
  _atom_site_symmetry_multiplicity
  _atom_site_fract_x
  _atom_site_fract_y
  _atom_site_fract_z
  _atom_site_occupancy
  H   H1        1.0  0.003239341436094286  0.003917844198121237  0.999814571968631  1.0000
  Ga  Ga1       1.0  0.0007415586635518783  0.008414947903870675  0.9991031230590828  1.0000
  Ga  Ga2       1.0  0.0007415586635518783  0.0017482816554572178  0.9993875795822584  1.0000
  Ga  Ga3       1.0  0.0020206528593870367  0.005157058229578484  0.999667763838446  1.0000
  Ga  Ga4       1.0  0.0007415586635518783  8.161494780995549e-05  0.9992453513464841  1.0000
  Ga  Ga5       1.0  0.0007948557608794163  0.003439207919627213  0.9995545856533059  1.0000
  Ga  Ga6       1.0  0.0007415586635518783  0.006748281376012934  0.998960894814929  1.0000
  Ga  Ga7       1.0  0.005237036676019214  0.009880714813129757  0.9996817659541783  1.0000
  Ga  Ga8       1.0  0.00574155851604157  0.0034149480463324675  0.9991031233665127  1.0000
  Ga  Ga9       1.0  0.00574155851604157  0.006748281376012934  0.9993875798420516  1.0000
  Ga  Ga10      1.0  0.00574155851604157  0.0017482816554572178  0.9989608948355552  1.0000
  Ga  Ga11      1.0  0.00574155851604157  0.005081614848155193  0.9992453515978978  1.0000
  Ga  Ga12      1.0  0.006181544005747473  0.008260101251145919  0.9995589527511038  1.0000
  Ga  Ga13      1.0  0.0042287529690875035  0.0003939964404891246  0.9994011075998901  1.0000
  Ga  Ga14      1.0  0.004458029717780916  0.003550597150736113  0.999708573044861  1.0000
  Ga  Ga15      1.0  0.0042287529690875035  0.007060662825885074  0.9991166510703301  1.0000
  Ga  Ga16      1.0  0.008621814721387249  0.009918384998424417  0.9995377304945866  1.0000
  Ga  Ga17      1.0  0.009228752969087504  0.003102566596460327  0.9989473671111117  1.0000
  Ga  Ga18      1.0  0.009228752969087504  0.006435899926140794  0.9992318235866505  1.0000
  Ga  Ga19      1.0  0.0022543640629956348  0.002094029711673465  0.9991194982663674  1.0000
  Ga  Ga20      1.0  0.0022543640629956348  0.005427363041353932  0.9994039547419062  1.0000
  Ga  Ga21      1.0  0.0020078557500226575  0.00881830819354661  0.9995999665424907  1.0000
  Ga  Ga22      1.0  0.007254364062995635  0.0014025334622584788  0.99922897643825  1.0000
  Ga  Ga23      1.0  0.007343971855505038  0.0047061672069051595  0.999521969509382  1.0000
  Ga  Ga24      1.0  0.007254364062995635  0.008069199710671937  0.9989445199150744  1.0000
  Ga  Ga25      1.0  0.007254364062995635  0.009769232981856278  0.9990895956086743  1.0000
  Ga  Ga26      1.0  0.007254364062995635  0.003102566596460327  0.9993740521382344  1.0000
  Ga  Ga27      1.0  0.006616538926672508  0.006211842047447895  0.9996598517453699  1.0000
  Ga  Ga28      1.0  0.0042287529690875035  0.008760696097069415  0.99926172676393  1.0000
  Ga  Ga29      1.0  0.004231417595312902  0.0019473473524532431  0.999582268071096  1.0000
  Ga  Ga30      1.0  0.0042287529690875035  0.005427363041353932  0.9989772697147835  1.0000
  Ga  Ga31      1.0  0.009228752969087504  0.008069199710671937  0.9993712049421971  1.0000
  Ga  Ga32      1.0  0.009228044329562105  0.0014260455481295022  0.9996582026692096  1.0000
  Ga  Ga33      1.0  0.009228752969087504  0.004735866654956454  0.9990867478930506  1.0000
  Ga  Ga34      1.0  0.0022543640629956348  0.0003939964404891246  0.9989744225727675  1.0000
  Ga  Ga35      1.0  0.0022543640629956348  0.003727329770169592  0.9992588790483063  1.0000
  Ga  Ga36      1.0  0.00239035676725375  0.007148693802461446  0.9995458028736661  1.0000
  Co  Co1       1.0  0.002290127052399438  0.007264470856753468  0.9992994794442808  1.0000
  Co  Co2       1.0  0.0020052600111116568  0.0005886876700949958  0.9995788074579991  1.0000
  Co  Co3       1.0  0.002290127052399438  0.003931137527073001  0.9990150229687418  1.0000
  Co  Co4       1.0  0.0072901270523994385  0.009565424950987883  0.9993334517010076  1.0000
  Co  Co5       1.0  0.007234443680799964  0.0029066632772741657  0.9996026158929019  1.0000
  Co  Co6       1.0  0.0072901270523994385  0.006232091895272401  0.9990489946518611  1.0000
  Co  Co7       1.0  0.0041929899796837  0.0005978044028662717  0.9991572515107491  1.0000
  Co  Co8       1.0  0.0041321977360353765  0.003942871447336058  0.9994383513067758  1.0000
  Co  Co9       1.0  0.0041929899796837  0.007264470856753468  0.998872794417158  1.0000
  Co  Co10      1.0  0.0091929899796837  0.009565424950987883  0.9989067666738849  1.0000
  Co  Co11      1.0  0.0091929899796837  0.002898758565591934  0.9991912232034449  1.0000
  Co  Co12      1.0  0.009258440893917193  0.006223559529811914  0.9994746875912974  1.0000
