data_image0
_chemical_formula_structural       HGa12Pt12Ga12Pt12
_chemical_formula_sum              "H1 Ga24 Pt24"
_cell_length_a       4.998833179473877
_cell_length_b       11.177731156964688
_cell_length_c       105.34709167480469
_cell_angle_alpha    71.56505233647006
_cell_angle_beta     90.0
_cell_angle_gamma    90.0

_space_group_name_H-M_alt    "P 1"
_space_group_IT_number       1

loop_
  _space_group_symop_operation_xyz
  'x, y, z'

loop_
  _atom_site_type_symbol
  _atom_site_label
  _atom_site_symmetry_multiplicity
  _atom_site_fract_x
  _atom_site_fract_y
  _atom_site_fract_z
  _atom_site_occupancy
  H   H1        1.0  0.007548660309007277  0.0007558524066756673  0.9998946804706739  1.0000
  Ga  Ga1       1.0  0.009220942219077119  0.00701495384169034  0.9989250392802491  1.0000
  Ga  Ga2       1.0  0.009220942219077119  0.003681620213260213  0.9987013528889929  1.0000
  Ga  Ga3       1.0  0.009220942219077119  0.00034828717765846576  0.9991487258057927  1.0000
  Ga  Ga4       1.0  0.0042209424575513485  0.005348286851822423  0.9986014600914105  1.0000
  Ga  Ga5       1.0  0.0042209424575513485  0.002014953750350856  0.9990488330104205  1.0000
  Ga  Ga6       1.0  0.0042209424575513485  0.008681620480252549  0.9988251464826666  1.0000
  Ga  Ga7       1.0  0.006065690794145897  0.008066704106299418  0.999119412085361  1.0000
  Ga  Ga8       1.0  0.006065690794145897  0.0047333708291749975  0.998895725399421  1.0000
  Ga  Ga9       1.0  0.006065690794145897  0.001400037639877004  0.998672038710534  1.0000
  Ga  Ga10      1.0  0.0010656908463121343  0.007629869513032059  0.9986307742669224  1.0000
  Ga  Ga11      1.0  0.0010656908463121343  0.004296536587213345  0.9990781474629352  1.0000
  Ga  Ga12      1.0  0.0010656908463121343  0.0009632033100889243  0.9988544607769951  1.0000
  Pt  Pt1       1.0  0.006188178238596902  0.00701495384169034  0.9987215229800883  1.0000
  Pt  Pt2       1.0  0.006188178238596902  0.003681620213260213  0.9991688961996759  1.0000
  Pt  Pt3       1.0  0.006188178238596902  0.00034828717765846576  0.998945209505632  1.0000
  Pt  Pt4       1.0  0.0011881781976091433  0.005348286851822423  0.9988049766744677  1.0000
  Pt  Pt5       1.0  0.0011881781976091433  0.002014953750350856  0.998581289982634  1.0000
  Pt  Pt6       1.0  0.0011881781976091433  0.008681620480252549  0.9990286633486204  1.0000
  Pt  Pt7       1.0  0.009098455147242099  0.006044861075399715  0.9991872509418044  1.0000
  Pt  Pt8       1.0  0.009098455147242099  0.0027115281495810007  0.998963564244077  1.0000
  Pt  Pt9       1.0  0.009098455147242099  0.009378194352524136  0.9987398777340042  1.0000
  Pt  Pt10      1.0  0.004098455013100344  0.009651712543931762  0.9985629354104791  1.0000
  Pt  Pt11      1.0  0.004098455013100344  0.006318379266807342  0.9990103086182793  1.0000
  Pt  Pt12      1.0  0.004098455013100344  0.0029850459896829215  0.9987866219323392  1.0000
  Ga  Ga13      1.0  0.009350968802753481  0.007043129261928408  0.9995845961077313  1.0000
  Ga  Ga14      1.0  0.009220942219077119  0.003681620213260213  0.9993724124998367  1.0000
  Ga  Ga15      1.0  0.0005221798960852118  0.0004166430782450327  0.9998058141883704  1.0000
  Ga  Ga16      1.0  0.0042209424575513485  0.005348286851822423  0.9992725197022542  1.0000
  Ga  Ga17      1.0  0.0045751404070688345  0.002128098252145629  0.9997318561667089  1.0000
  Ga  Ga18      1.0  0.0042209424575513485  0.008681620480252549  0.9994962063764069  1.0000
  Ga  Ga19      1.0  0.006127843140450924  0.008080740877091073  0.9997843079946782  1.0000
  Ga  Ga20      1.0  0.006065690794145897  0.0047333708291749975  0.9995667847273683  1.0000
  Ga  Ga21      1.0  0.006065690794145897  0.001400037639877004  0.9993430986042743  1.0000
  Ga  Ga22      1.0  0.0010656908463121343  0.007629869513032059  0.9993018341606626  1.0000
  Ga  Ga23      1.0  0.0013530947721989222  0.004175231078213758  0.9997902034308018  1.0000
  Ga  Ga24      1.0  0.0010656908463121343  0.0009632033100889243  0.9995255206707354  1.0000
  Pt  Pt13      1.0  0.006188178238596902  0.00701495384169034  0.9993925828738286  1.0000
  Pt  Pt14      1.0  0.006349867492986235  0.0039203791641923506  0.9998119057636738  1.0000
  Pt  Pt15      1.0  0.006141852011024569  0.0003768163846991515  0.9996188246023026  1.0000
  Pt  Pt16      1.0  0.0011881781976091433  0.005348286851822423  0.999476036002415  1.0000
  Pt  Pt17      1.0  0.0011881781976091433  0.002014953750350856  0.9992523498763742  1.0000
  Pt  Pt18      1.0  0.0012909818300343126  0.008677224943258226  0.9997088532550472  1.0000
  Pt  Pt19      1.0  0.008949176240850579  0.00613815943959444  0.9998277185037069  1.0000
  Pt  Pt20      1.0  0.009477819953005315  0.002712107979648866  0.9996427917071902  1.0000
  Pt  Pt21      1.0  0.009098455147242099  0.009378194352524136  0.9994109370619515  1.0000
  Pt  Pt22      1.0  0.004098455013100344  0.009651712543931762  0.9992339953042194  1.0000
  Pt  Pt23      1.0  0.004023757059194932  0.006382388571675762  0.9996796666540345  1.0000
  Pt  Pt24      1.0  0.004098455013100344  0.0029850459896829215  0.9994576818260795  1.0000
