data_image0
_chemical_formula_structural       HIn8Pt4
_chemical_formula_sum              "H1 In8 Pt4"
_cell_length_a       4.616677761077881
_cell_length_b       4.616677761077881
_cell_length_c       109.17381286621094
_cell_angle_alpha    90.0
_cell_angle_beta     90.0
_cell_angle_gamma    90.0

_space_group_name_H-M_alt    "P 1"
_space_group_IT_number       1

loop_
  _space_group_symop_operation_xyz
  'x, y, z'

loop_
  _atom_site_type_symbol
  _atom_site_label
  _atom_site_symmetry_multiplicity
  _atom_site_fract_x
  _atom_site_fract_y
  _atom_site_fract_z
  _atom_site_occupancy
  H   H1        1.0  0.007499999193079853  0.002500000806920147  0.00017664732159391962  1.0000
  In  In1       1.0  0.007500000000000001  0.005000000403460074  0.9991018540158795  1.0000
  In  In2       1.0  0.0025  3.0000000128205204e-10  0.9991018540158795  1.0000
  In  In3       1.0  0.0025  3.0000000128205204e-10  0.9994008711266469  1.0000
  In  In4       1.0  0.007500000000000001  0.005000000403460074  0.9994008711266469  1.0000
  In  In5       1.0  0.007500000000000001  0.005000000403460074  0.9996998885103947  1.0000
  In  In6       1.0  0.0025  3.0000000128205204e-10  0.9996998885103947  1.0000
  In  In7       1.0  0.002500002017300368  0.01  0.0  1.0000
  In  In8       1.0  0.007499999193079853  0.004999999596539927  0.0  1.0000
  Pt  Pt1       1.0  0.007500000000000001  3.0000000128205204e-10  0.9995503798185208  1.0000
  Pt  Pt2       1.0  0.0025  0.005000000403460074  0.999251362434773  1.0000
  Pt  Pt3       1.0  0.007499999193079853  2.1000000330224585e-09  0.00012759054129981  1.0000
  Pt  Pt4       1.0  0.0025  0.005000000403460074  0.9998493972022687  1.0000
