data_image0
_chemical_formula_structural       COMn6Co6Sb6
_chemical_formula_sum              "C1 O1 Mn6 Co6 Sb6"
_cell_length_a       5.606315612792969
_cell_length_b       7.101269232081054
_cell_length_c       102.53144073486328
_cell_angle_alpha    70.79579006502155
_cell_angle_beta     90.0
_cell_angle_gamma    66.75021598574725

_space_group_name_H-M_alt    "P 1"
_space_group_IT_number       1

loop_
  _space_group_symop_operation_xyz
  'x, y, z'

loop_
  _atom_site_type_symbol
  _atom_site_label
  _atom_site_symmetry_multiplicity
  _atom_site_fract_x
  _atom_site_fract_y
  _atom_site_fract_z
  _atom_site_occupancy
  C   C1        1.0  0.005100452730105361  0.007798032709756251  0.9999518360088067  1.0000
  O   O1        1.0  0.005100452730105361  0.007798032709756251  6.88735168401333e-05  1.0000
  Mn  Mn1       1.0  0.004546319845172402  0.006766981911850125  0.9994557199973616  1.0000
  Mn  Mn2       1.0  0.00787965315194405  0.00010031529830682941  0.9991913180730967  1.0000
  Mn  Mn3       1.0  0.0009534282522902581  0.003931914932533936  0.9997166706421791  1.0000
  Mn  Mn4       1.0  0.007978876931189677  0.00989968499941336  0.9995751314315092  1.0000
  Mn  Mn5       1.0  0.0012679316247539885  0.003323758272949228  0.9993191608147471  1.0000
  Mn  Mn6       1.0  0.0043478016861110014  0.007142102317079347  0.9997912518780803  1.0000
  Co  Co1       1.0  0.008740459194791678  0.003378703584720941  0.9995196414627858  1.0000
  Co  Co2       1.0  0.0020737924943710698  0.006712036905824434  0.9992552393423575  1.0000
  Co  Co3       1.0  0.004835249665860796  0.0004896699102112479  0.9997505797136298  1.0000
  Co  Co4       1.0  0.007073792534239931  0.006712036905824434  0.9992552393423575  1.0000
  Co  Co5       1.0  0.0005185908388736884  0.0004960301918228036  0.9997504912032361  1.0000
  Co  Co6       1.0  0.003740458822682308  0.003378703584720941  0.9995196414627858  1.0000
  Sb  Sb1       1.0  0.0029964858363348613  0.009863258418415847  0.9995431678691389  1.0000
  Sb  Sb2       1.0  0.006332842156472218  0.0031939372892504907  0.9993140120244135  1.0000
  Sb  Sb3       1.0  0.009429835050076475  0.006990177730504714  0.999840750311647  1.0000
  Sb  Sb4       1.0  0.009481409060951386  0.006896802895548863  0.9994608690783605  1.0000
  Sb  Sb5       1.0  0.0028147426632213536  0.00023013619601449837  0.9991964668653894  1.0000
  Sb  Sb6       1.0  0.006113556426508757  0.0036053075542768166  0.9997401340150466  1.0000
