data_image0
_chemical_formula_structural       Si4Pd12H
_chemical_formula_sum              "Si4 Pd12 H1"
_cell_length_a       5.372028827667236
_cell_length_b       5.892805099487305
_cell_length_c       39.304168701171875
_cell_angle_alpha    90.0
_cell_angle_beta     90.0
_cell_angle_gamma    90.0

_space_group_name_H-M_alt    "P 1"
_space_group_IT_number       1

loop_
  _space_group_symop_operation_xyz
  'x, y, z'

loop_
  _atom_site_type_symbol
  _atom_site_label
  _atom_site_symmetry_multiplicity
  _atom_site_fract_x
  _atom_site_fract_y
  _atom_site_fract_z
  _atom_site_occupancy
  Si  Si1       1.0  0.005372811668596225  0.001058068168940181  0.9990021132807071  1.0000
  Si  Si2       1.0  0.00023292634868487917  0.0039463776913707185  0.9999476615261955  1.0000
  Si  Si3       1.0  0.009767073465814412  0.006058068567211098  0.9990021132807071  1.0000
  Si  Si4       1.0  0.004906955937336371  0.008946374138541272  0.9999476577349536  1.0000
  Pd  Pd1       1.0  0.006850879582088026  0.008221046306198328  0.9986150653932817  1.0000
  Pd  Pd2       1.0  0.00185087960982645  0.006814043662670694  0.9984129341930422  1.0000
  Pd  Pd3       1.0  0.008272752569665384  0.0032609948515177245  0.9993891975640549  1.0000
  Pd  Pd4       1.0  0.0032584017771542084  0.0018114281100917715  0.9996028150899339  1.0000
  Pd  Pd5       1.0  0.009155525824650023  4.9765551218732275e-05  0.0  1.0000
  Pd  Pd6       1.0  0.004095667720889501  0.004950234708763672  0.9990021132807071  1.0000
  Pd  Pd7       1.0  0.005984351334963791  0.005049766403866191  3.791241918164108e-10  1.0000
  Pd  Pd8       1.0  0.001044217295632836  0.009950234948990574  0.9990021132807071  1.0000
  Pd  Pd9       1.0  0.006867125283409023  0.008260996672184773  0.9993891968058065  1.0000
  Pd  Pd10      1.0  0.0018814660762184424  0.00681142329291021  0.9996028131943129  1.0000
  Pd  Pd11      1.0  0.008289005205592314  0.003221046065971426  0.9986150653932817  1.0000
  Pd  Pd12      1.0  0.0032890055800610355  0.0018140434224437917  0.9984129341930422  1.0000
  H   H1        1.0  0.006206963974267264  0.0009305967417554937  0.00018304646754764857  1.0000
