data_image0
_chemical_formula_structural       COPt12V6
_chemical_formula_sum              "C1 O1 Pt12 V6"
_cell_length_a       6.210333792855154
_cell_length_b       4.8416082102069105
_cell_length_c       102.63408660888672
_cell_angle_alpha    92.50895879434933
_cell_angle_beta     95.43176416722687
_cell_angle_gamma    73.54265581756908

_space_group_name_H-M_alt    "P 1"
_space_group_IT_number       1

loop_
  _space_group_symop_operation_xyz
  'x, y, z'

loop_
  _atom_site_type_symbol
  _atom_site_label
  _atom_site_symmetry_multiplicity
  _atom_site_fract_x
  _atom_site_fract_y
  _atom_site_fract_z
  _atom_site_occupancy
  C   C1        1.0  0.005825818161878442  0.002964244901108923  0.00012412263420335062  1.0000
  O   O1        1.0  0.005825818161878442  0.002964244901108923  0.00024104309128720634  1.0000
  Pt  Pt1       1.0  0.0071028133744707326  0.002224523947096155  0.9995503283696946  1.0000
  Pt  Pt2       1.0  0.0032932895984294193  0.005081667014475988  0.9993989165155643  1.0000
  Pt  Pt3       1.0  0.009483766048394958  0.007938809908352402  0.9992475043661883  1.0000
  Pt  Pt4       1.0  0.005278139525460345  0.009204046498708273  0.9993503692530723  1.0000
  Pt  Pt5       1.0  0.001468615435520627  0.0020611899867715735  0.9991989571932988  1.0000
  Pt  Pt6       1.0  0.009087663301501658  0.006346903816413794  0.9995017813983723  1.0000
  Pt  Pt7       1.0  0.00853138510438463  0.0036530955404174862  4.564436925516762e-06  1.0000
  Pt  Pt8       1.0  0.004721861014444911  0.006510238335327149  0.9998531525804346  1.0000
  Pt  Pt9       1.0  0.0009123370814543961  0.00936738107392922  0.9997017407247264  1.0000
  Pt  Pt10      1.0  0.006706710627577433  0.0006326184327855793  0.9998046056934459  1.0000
  Pt  Pt11      1.0  0.0028971868515361193  0.0034897613076227342  0.999653193258169  1.0000
  Pt  Pt12      1.0  0.0005162343737983969  0.007775475738084422  0.999956017468322  1.0000
  V   V1        1.0  0.0073809524730292465  0.0035714284701796636  0.999298936706026  1.0000
  V   V2        1.0  0.005000000113003426  0.007857142473325302  0.9996017609159707  1.0000
  V   V3        1.0  0.0011904761800129104  0.0007142856162669957  0.9994503488563835  1.0000
  V   V4        1.0  0.008809524202943144  0.00499999967841564  0.9997531730628362  1.0000
  V   V5        1.0  0.006428571529018918  0.009285714179261818  5.5997272010745836e-05  1.0000
  V   V6        1.0  0.0026190477529776054  0.0021428571696245806  0.9999045852130074  1.0000
