data_image0
_chemical_formula_structural       COAl5Cu5Pt10Al5Cu5Pt10
_chemical_formula_sum              "C1 O1 Al10 Cu10 Pt20"
_cell_length_a       5.694042682647705
_cell_length_b       8.163607337696252
_cell_length_c       110.26285552978516
_cell_angle_alpha    80.53810670198277
_cell_angle_beta     90.0
_cell_angle_gamma    69.58939638371432

_space_group_name_H-M_alt    "P 1"
_space_group_IT_number       1

loop_
  _space_group_symop_operation_xyz
  'x, y, z'

loop_
  _atom_site_type_symbol
  _atom_site_label
  _atom_site_symmetry_multiplicity
  _atom_site_fract_x
  _atom_site_fract_y
  _atom_site_fract_z
  _atom_site_occupancy
  C   C1        1.0  0.00730285115045605  0.006004587217634206  4.941646547215302e-05  1.0000
  O   O1        1.0  0.00730285115045605  0.006004587217634206  0.00015824753338743587  1.0000
  Al  Al1       1.0  0.008053316101269043  0.004500000094956494  0.9989054658829114  1.0000
  Al  Al2       1.0  0.0060533162239211815  0.00849999984965222  0.9990271835659278  1.0000
  Al  Al3       1.0  5.331572091197401e-05  0.0005000000002472826  0.9993923371663788  1.0000
  Al  Al4       1.0  0.004053315980396068  0.002499999970326096  0.9991489017958699  1.0000
  Al  Al5       1.0  0.0020533159794069375  0.006499999972304357  0.9992706194758767  1.0000
  Cu  Cu1       1.0  0.009053316163584242  0.002499999970326096  0.9991489017958699  1.0000
  Cu  Cu2       1.0  0.007053316162595111  0.006499999972304357  0.9992706194758767  1.0000
  Cu  Cu3       1.0  0.0010533160407330063  0.00849999984965222  0.9990271835659278  1.0000
  Cu  Cu4       1.0  0.005053315965435475  0.0005000000002472826  0.9993923371663788  1.0000
  Cu  Cu5       1.0  0.003053315918080869  0.004500000094956494  0.9989054658829114  1.0000
  Pt  Pt1       1.0  0.005053315836857518  0.00549999978634789  0.9990880426824037  1.0000
  Pt  Pt2       1.0  0.003053315959509655  0.009499999541043616  0.9992097603654202  1.0000
  Pt  Pt3       1.0  0.007053315714205381  0.0015000000316521646  0.998966324729103  1.0000
  Pt  Pt4       1.0  0.0010533159194650152  0.0034999999090000273  0.9993314780517839  1.0000
  Pt  Pt5       1.0  0.009053315834089228  0.0075000001582608234  0.9988446070367197  1.0000
  Pt  Pt6       1.0  5.331598079108374e-05  0.00549999978634789  0.9990880426824037  1.0000
  Pt  Pt7       1.0  0.008053316142697829  0.009499999541043616  0.9992097603654202  1.0000
  Pt  Pt8       1.0  0.002053315858138946  0.0015000000316521646  0.998966324729103  1.0000
  Pt  Pt9       1.0  0.00605331577553145  0.0034999999090000273  0.9993314780517839  1.0000
  Pt  Pt10      1.0  0.004053315650901052  0.0075000001582608234  0.9988446070367197  1.0000
  Al  Al6       1.0  0.008053316101269043  0.004500000094956494  0.9995140548452569  1.0000
  Al  Al7       1.0  0.0060533162239211815  0.00849999984965222  0.9996357725282733  1.0000
  Al  Al8       1.0  0.009946684900338988  0.0007192331228126772  0.9999778329575535  1.0000
  Al  Al9       1.0  0.004090028038914291  0.0024282638014673694  0.9997596461005495  1.0000
  Al  Al10      1.0  0.00210239301643008  0.006403443560835587  0.9998793781854733  1.0000
  Cu  Cu6       1.0  0.009069950108715296  0.002466130176062633  0.9997540509010876  1.0000
  Cu  Cu7       1.0  0.007101185478873921  0.006407919869285424  0.9998898593868499  1.0000
  Cu  Cu8       1.0  0.0010533160407330063  0.00849999984965222  0.9996357725282733  1.0000
  Cu  Cu9       1.0  0.005046915175264529  0.0005063154107310682  0.9999938375465859  1.0000
  Cu  Cu10      1.0  0.003053315918080869  0.004500000094956494  0.9995140548452569  1.0000
  Pt  Pt11      1.0  0.005053315836857518  0.00549999978634789  0.9996966316447492  1.0000
  Pt  Pt12      1.0  0.003139113125506812  0.009307440630984634  0.9998253770234319  1.0000
  Pt  Pt13      1.0  0.007053315714205381  0.0015000000316521646  0.9995749139617328  1.0000
  Pt  Pt14      1.0  0.001130225291545211  0.0034567398077498175  0.9999352494785507  1.0000
  Pt  Pt15      1.0  0.009053315834089228  0.0075000001582608234  0.999453195728781  1.0000
  Pt  Pt16      1.0  5.331598079108374e-05  0.00549999978634789  0.9996966316447492  1.0000
  Pt  Pt17      1.0  0.0081634342059808  0.009308052902541468  0.9998255782308729  1.0000
  Pt  Pt18      1.0  0.002053315858138946  0.0015000000316521646  0.9995749139617328  1.0000
  Pt  Pt19      1.0  0.006021730027469563  0.003455104775627935  0.9999352731627934  1.0000
  Pt  Pt20      1.0  0.004053315650901052  0.0075000001582608234  0.999453195728781  1.0000
