data_image0
_chemical_formula_structural       COCo15Ni5Co15Ni5
_chemical_formula_sum              "C1 O1 Co30 Ni10"
_cell_length_a       7.819540034037807
_cell_length_b       4.945511341094971
_cell_length_c       106.34193420410156
_cell_angle_alpha    90.0
_cell_angle_beta     104.96321684175965
_cell_angle_gamma    71.56505122106795

_space_group_name_H-M_alt    "P 1"
_space_group_IT_number       1

loop_
  _space_group_symop_operation_xyz
  'x, y, z'

loop_
  _atom_site_type_symbol
  _atom_site_label
  _atom_site_symmetry_multiplicity
  _atom_site_fract_x
  _atom_site_fract_y
  _atom_site_fract_z
  _atom_site_occupancy
  C   C1        1.0  0.009160394102721084  0.005169802743750844  0.00014078654274274  1.0000
  O   O1        1.0  0.009160394102721084  0.005169802743750844  0.00025363030854883754  1.0000
  Co  Co1       1.0  0.0024999999478121345  0.003499999791074641  0.9998576060332616  1.0000
  Co  Co2       1.0  0.0064999997077479525  0.0014999999111067316  0.9997436903404456  1.0000
  Co  Co3       1.0  0.008499999979124854  0.00549999980554896  0.9999715213858141  1.0000
  Co  Co4       1.0  0.0005000000026093933  0.009499999793806689  0.9996297749940858  1.0000
  Co  Co5       1.0  0.004499999958249708  0.007499999815986532  8.543651317588807e-05  1.0000
  Co  Co6       1.0  0.005499999832998831  0.009500000270310793  0.9999145637070608  1.0000
  Co  Co7       1.0  0.00949999933199532  0.007500000520812546  0.9998006480092907  1.0000
  Co  Co8       1.0  0.001499999942593348  0.0014999999669354353  2.8478836899601707e-05  1.0000
  Co  Co9       1.0  0.003499999822561257  0.005500000245398899  0.9996867326666465  1.0000
  Co  Co10      1.0  0.007500000104375732  0.003500000104491662  0.00014239419192925738  1.0000
  Co  Co11      1.0  0.005499999832998831  0.0045000002401801124  0.9999145637070608  1.0000
  Co  Co12      1.0  0.00949999933199532  0.002500000490681868  0.9998006480092907  1.0000
  Co  Co13      1.0  0.001499999942593348  0.006500000185382854  2.8478836899601707e-05  1.0000
  Co  Co14      1.0  0.003499999822561257  0.0005000000269514806  0.9996867326666465  1.0000
  Co  Co15      1.0  0.007500000104375732  0.008500000134622342  0.00014239419192925738  1.0000
  Ni  Ni1       1.0  0.004499999958249708  0.0024999997858558545  8.543651317588807e-05  1.0000
  Ni  Ni2       1.0  0.008499999979124854  0.0004999997754182813  0.9999715213858141  1.0000
  Ni  Ni3       1.0  0.0005000000026093933  0.0044999997636760115  0.9996297749940858  1.0000
  Ni  Ni4       1.0  0.0024999999478121345  0.00849999982120532  0.9998576060332616  1.0000
  Ni  Ni5       1.0  0.0064999997077479525  0.006499999941237409  0.9997436903404456  1.0000
  Co  Co16      1.0  0.0024999999478121345  0.003499999791074641  0.9992880291053212  1.0000
  Co  Co17      1.0  0.0064999997077479525  0.0014999999111067316  0.9991741136927553  1.0000
  Co  Co18      1.0  0.008499999979124854  0.00549999980554896  0.9994019444578738  1.0000
  Co  Co19      1.0  0.0005000000026093933  0.009499999793806689  0.9990601983463955  1.0000
  Co  Co20      1.0  0.004499999958249708  0.007499999815986532  0.9995158598654855  1.0000
  Co  Co21      1.0  0.005499999832998831  0.009500000270310793  0.9993449867791204  1.0000
  Co  Co22      1.0  0.00949999933199532  0.007500000520812546  0.9992310713616004  1.0000
  Co  Co23      1.0  0.001499999942593348  0.0014999999669354353  0.9994589021892092  1.0000
  Co  Co24      1.0  0.003499999822561257  0.005500000245398899  0.9991171560189561  1.0000
  Co  Co25      1.0  0.007500000104375732  0.003500000104491662  0.9995728175442389  1.0000
  Co  Co26      1.0  0.005499999832998831  0.0045000002401801124  0.9993449867791204  1.0000
  Co  Co27      1.0  0.00949999933199532  0.002500000490681868  0.9992310713616004  1.0000
  Co  Co28      1.0  0.001499999942593348  0.006500000185382854  0.9994589021892092  1.0000
  Co  Co29      1.0  0.003499999822561257  0.0005000000269514806  0.9991171560189561  1.0000
  Co  Co30      1.0  0.007500000104375732  0.008500000134622342  0.9995728175442389  1.0000
  Ni  Ni6       1.0  0.004499999958249708  0.0024999997858558545  0.9995158598654855  1.0000
  Ni  Ni7       1.0  0.008499999979124854  0.0004999997754182813  0.9994019444578738  1.0000
  Ni  Ni8       1.0  0.0005000000026093933  0.0044999997636760115  0.9990601983463955  1.0000
  Ni  Ni9       1.0  0.0024999999478121345  0.00849999982120532  0.9992880291053212  1.0000
  Ni  Ni10      1.0  0.0064999997077479525  0.006499999941237409  0.9991741136927553  1.0000
