data_image0
_chemical_formula_structural       HGe8Rh8Ge8Rh8Ge8Rh8Ge8Rh8
_chemical_formula_sum              "H1 Ge32 Rh32"
_cell_length_a       6.597250938415527
_cell_length_b       14.40869289926902
_cell_length_c       104.66622161865234
_cell_angle_alpha    113.63991986401301
_cell_angle_beta     90.0
_cell_angle_gamma    90.0

_space_group_name_H-M_alt    "P 1"
_space_group_IT_number       1

loop_
  _space_group_symop_operation_xyz
  'x, y, z'

loop_
  _atom_site_type_symbol
  _atom_site_label
  _atom_site_symmetry_multiplicity
  _atom_site_fract_x
  _atom_site_fract_y
  _atom_site_fract_z
  _atom_site_occupancy
  H   H1        1.0  0.0037500001468150123  0.0069421612181176035  0.0003070288236141365  1.0000
  Ge  Ge1       1.0  0.0012500000959944312  0.0028065243028032663  0.999258353834729  1.0000
  Ge  Ge2       1.0  0.0012500000959944312  0.007806524099598946  0.9995343599766691  1.0000
  Ge  Ge3       1.0  0.0037500001468150123  0.0021934754939924132  0.9995637595691669  1.0000
  Ge  Ge4       1.0  0.0037500001468150123  0.007193475290788093  0.9992877533592347  1.0000
  Ge  Ge5       1.0  0.0012500000959944312  0.004693475392390253  0.9996385220329517  1.0000
  Ge  Ge6       1.0  0.0012500000959944312  0.009693474906957709  0.9993625158074401  1.0000
  Ge  Ge7       1.0  0.0037500001468150123  0.0003065244044054263  0.9991835913709443  1.0000
  Ge  Ge8       1.0  0.0037500001468150123  0.0053065244834293295  0.9994595975284636  1.0000
  Rh  Rh1       1.0  0.0012500000959944312  0.001015928186491208  0.9996073364677865  1.0000
  Rh  Rh2       1.0  0.0012500000959944312  0.006015928265515111  0.9993313305581705  1.0000
  Rh  Rh3       1.0  0.0037500001468150123  0.0039840716103044715  0.9992147766513726  1.0000
  Rh  Rh4       1.0  0.0037500001468150123  0.008984071689328374  0.9994907828088919  1.0000
  Rh  Rh5       1.0  0.0012500000959944312  0.0014840717119066317  0.9993571726753022  1.0000
  Rh  Rh6       1.0  0.0012500000959944312  0.006484071508702311  0.9996331788172423  1.0000
  Rh  Rh7       1.0  0.0037500001468150123  0.003515928084889048  0.9994649407285936  1.0000
  Rh  Rh8       1.0  0.0037500001468150123  0.008515927881684726  0.9991889345186614  1.0000
  Ge  Ge9       1.0  0.0012500000959944312  0.0028065243028032663  0.9998103659018645  1.0000
  Ge  Ge10      1.0  0.0012500000959944312  0.007815299703975558  8.832912656549437e-05  1.0000
  Ge  Ge11      1.0  0.0037500001468150123  0.0021785969865142415  0.00012026123470551123  1.0000
  Ge  Ge12      1.0  0.0037500001468150123  0.007193475290788093  0.9998397654263701  1.0000
  Ge  Ge13      1.0  0.0012500000959944312  0.004708340070685481  0.0001837721083055069  1.0000
  Ge  Ge14      1.0  0.0012500000959944312  0.009665516250240504  0.9999150525655143  1.0000
  Ge  Ge15      1.0  0.0037500001468150123  0.0003065244044054263  0.9997356034380797  1.0000
  Ge  Ge16      1.0  0.0037500001468150123  0.005325373377553484  1.2839142969293055e-05  1.0000
  Rh  Rh9       1.0  0.0012499999548261501  0.0010178220789839481  0.00014453657469001277  1.0000
  Rh  Rh10      1.0  0.0012500000959944312  0.006015928265515111  0.9998833426253059  1.0000
  Rh  Rh11      1.0  0.0037500001468150123  0.0039840716103044715  0.999766788718508  1.0000
  Rh  Rh12      1.0  0.0037500001468150123  0.00894620117740738  4.1863825312194774e-05  1.0000
  Rh  Rh13      1.0  0.0012500000959944312  0.0014777301848422366  0.9999051991631973  1.0000
  Rh  Rh14      1.0  0.0012500000959944312  0.006415984514277371  0.0001741573738960184  1.0000
  Rh  Rh15      1.0  0.0037500001468150123  0.0034949523188737837  2.2507861837268695e-05  1.0000
  Rh  Rh16      1.0  0.0037500001468150123  0.008515927881684726  0.9997409468705336  1.0000
  Ge  Ge17      1.0  0.006250000338803875  0.0028065243028032663  0.999258353834729  1.0000
  Ge  Ge18      1.0  0.006250000338803875  0.007806524099598946  0.9995343599766691  1.0000
  Ge  Ge19      1.0  0.008750000248456175  0.0021934754939924132  0.9995637595691669  1.0000
  Ge  Ge20      1.0  0.008750000248456175  0.007193475290788093  0.9992877533592347  1.0000
  Ge  Ge21      1.0  0.006250000338803875  0.004693475392390253  0.9996385220329517  1.0000
  Ge  Ge22      1.0  0.006250000338803875  0.009693474906957709  0.9993625158074401  1.0000
  Ge  Ge23      1.0  0.008750000248456175  0.0003065244044054263  0.9991835913709443  1.0000
  Ge  Ge24      1.0  0.008750000248456175  0.0053065244834293295  0.9994595975284636  1.0000
  Rh  Rh17      1.0  0.006250000338803875  0.001015928186491208  0.9996073364677865  1.0000
  Rh  Rh18      1.0  0.006250000338803875  0.006015928265515111  0.9993313305581705  1.0000
  Rh  Rh19      1.0  0.008750000248456175  0.0039840716103044715  0.9992147766513726  1.0000
  Rh  Rh20      1.0  0.008750000248456175  0.008984071689328374  0.9994907828088919  1.0000
  Rh  Rh21      1.0  0.006250000338803875  0.0014840717119066317  0.9993571726753022  1.0000
  Rh  Rh22      1.0  0.006250000338803875  0.006484071508702311  0.9996331788172423  1.0000
  Rh  Rh23      1.0  0.008750000248456175  0.003515928084889048  0.9994649407285936  1.0000
  Rh  Rh24      1.0  0.008750000248456175  0.008515927881684726  0.9991889345186614  1.0000
  Ge  Ge25      1.0  0.006250000338803875  0.0028065243028032663  0.9998103659018645  1.0000
  Ge  Ge26      1.0  0.006250000338803875  0.007815299703975558  8.832912656549437e-05  1.0000
  Ge  Ge27      1.0  0.008750000248456175  0.0021785969865142415  0.00012026123470551123  1.0000
  Ge  Ge28      1.0  0.008750000248456175  0.007193475290788093  0.9998397654263701  1.0000
  Ge  Ge29      1.0  0.006250000338803875  0.004708340070685481  0.0001837721083055069  1.0000
  Ge  Ge30      1.0  0.006250000338803875  0.009665516250240504  0.9999150525655143  1.0000
  Ge  Ge31      1.0  0.008750000248456175  0.0003065244044054263  0.9997356034380797  1.0000
  Ge  Ge32      1.0  0.008750000248456175  0.005325373377553484  1.2839142969293055e-05  1.0000
  Rh  Rh25      1.0  0.006250000338803875  0.0010178220789839481  0.00014453657469001277  1.0000
  Rh  Rh26      1.0  0.006250000338803875  0.006015928265515111  0.9998833426253059  1.0000
  Rh  Rh27      1.0  0.008750000248456175  0.0039840716103044715  0.999766788718508  1.0000
  Rh  Rh28      1.0  0.008750000248456175  0.00894620117740738  4.1863825312194774e-05  1.0000
  Rh  Rh29      1.0  0.006250000338803875  0.0014777301848422366  0.9999051991631973  1.0000
  Rh  Rh30      1.0  0.006250000338803875  0.006415984514277371  0.0001741573738960184  1.0000
  Rh  Rh31      1.0  0.008750000248456175  0.0034949523188737837  2.2507861837268695e-05  1.0000
  Rh  Rh32      1.0  0.008750000248456175  0.008515927881684726  0.9997409468705336  1.0000
