data_image0
_chemical_formula_structural       COV18Au6V18Au6
_chemical_formula_sum              "C1 O1 V36 Au12"
_cell_length_a       4.8841705322265625
_cell_length_b       10.92133735472739
_cell_length_c       28.556438446044922
_cell_angle_alpha    108.4349480318484
_cell_angle_beta     90.0
_cell_angle_gamma    90.0

_space_group_name_H-M_alt    "P 1"
_space_group_IT_number       1

loop_
  _space_group_symop_operation_xyz
  'x, y, z'

loop_
  _atom_site_type_symbol
  _atom_site_label
  _atom_site_symmetry_multiplicity
  _atom_site_fract_x
  _atom_site_fract_y
  _atom_site_fract_z
  _atom_site_occupancy
  C   C1        1.0  0.005000008603564165  0.007367227278798098  0.0008882795917518431  1.0000
  O   O1        1.0  0.005000008603564165  0.007367227278798098  0.001308500392052515  1.0000
  V   V1        1.0  8.44999956462668e-09  0.0076666429687612895  0.9999858617436561  1.0000
  V   V2        1.0  8.499999863337736e-10  0.0041857859988479575  0.9983832773799486  1.0000
  V   V3        1.0  8.499999863337736e-10  0.0008524527685865137  0.9991895477430371  1.0000
  V   V4        1.0  9.34999984967151e-09  0.005822225793527372  0.00025009809340242124  1.0000
  V   V5        1.0  8.499999863337736e-10  0.0025191194736055114  0.9987864127028176  1.0000
  V   V6        1.0  0.00999999890167266  0.00919803932413313  0.9996547519650332  1.0000
  V   V7        1.0  0.0050000002135636495  0.007524140567982069  0.9993933453039834  1.0000
  V   V8        1.0  0.0050000002135636495  0.004170859511292199  9.772368434328157e-05  1.0000
  V   V9        1.0  0.005000000976290969  0.0008524527685865137  0.9985848446748085  1.0000
  V   V10       1.0  0.005000005171291227  0.009193116323034382  0.00015190021171741083  1.0000
  V   V11       1.0  0.005000000976290969  0.005852452703866955  0.9985848448861433  1.0000
  V   V12       1.0  0.005000000594927309  0.002509051627142902  0.9993800551753603  1.0000
  V   V13       1.0  0.007538859370460247  0.005032193780874969  0.9994230863912872  1.0000
  V   V14       1.0  0.006890589200630528  0.0016614887807695766  0.00020094128544219841  1.0000
  V   V15       1.0  0.007500000701709134  0.008352452401842347  0.9985848448287438  1.0000
  V   V16       1.0  0.002461146586440119  0.005032194140428073  0.9994230874784006  1.0000
  V   V17       1.0  0.0031094146587697094  0.0016614896796523363  0.00020094191596794366  1.0000
  V   V18       1.0  0.0025000008695091444  0.008352452401842347  0.9985848448287438  1.0000
  Au  Au1       1.0  0.005000008603564165  0.006838582822073749  0.00024893457205572546  1.0000
  Au  Au2       1.0  0.005000000976290969  0.0033524526463384586  0.9985848451609656  1.0000
  Au  Au3       1.0  0.00499999945083633  0.00998088063426042  0.9993589131922628  1.0000
  Au  Au4       1.0  8.499999863337736e-10  0.0066857856968233495  0.9989879801298704  1.0000
  Au  Au5       1.0  2.7499998809070003e-09  0.0032596807544673636  0.9998467997488112  1.0000
  Au  Au6       1.0  8.499999863337736e-10  1.911944978511841e-05  0.9981817096525807  1.0000
  V   V19       1.0  8.499999863337736e-10  0.007519119049332849  0.9975770072560249  1.0000
  V   V20       1.0  8.499999863337736e-10  0.0041857859988479575  0.9959644669333844  1.0000
  V   V21       1.0  8.499999863337736e-10  0.0008524527685865137  0.9967707372964729  1.0000
  V   V22       1.0  8.499999863337736e-10  0.005852452703866955  0.9979801423397291  1.0000
  V   V23       1.0  8.499999863337736e-10  0.0025191194736055114  0.9963676022562533  1.0000
  V   V24       1.0  8.499999863337736e-10  0.009185785754351847  0.9971738722158054  1.0000
  V   V25       1.0  0.005000000976290969  0.007519119049332849  0.9969723047096107  1.0000
  V   V26       1.0  0.005000000976290969  0.0041857859988479575  0.9977785748335343  1.0000
  V   V27       1.0  0.005000000976290969  0.0008524527685865137  0.9961660347500586  1.0000
  V   V28       1.0  0.005000000976290969  0.009185785754351847  0.9977785747622196  1.0000
  V   V29       1.0  0.005000000976290969  0.005852452703866955  0.9961660349613934  1.0000
  V   V30       1.0  0.005000000976290969  0.0025191194736055114  0.9969723048026676  1.0000
  V   V31       1.0  0.007500000701709134  0.005019119351357456  0.9969723047670103  1.0000
  V   V32       1.0  0.007500000701709134  0.0016857861210960127  0.9977785748691916  1.0000
  V   V33       1.0  0.007500000701709134  0.008352452401842347  0.9961660349039939  1.0000
  V   V34       1.0  0.0025000008695091444  0.005019119351357456  0.9969723047670103  1.0000
  V   V35       1.0  0.0025000008695091444  0.0016857861210960127  0.9977785748691916  1.0000
  V   V36       1.0  0.0025000008695091444  0.008352452401842347  0.9961660349039939  1.0000
  Au  Au7       1.0  0.005000000976290969  0.0066857856968233495  0.9977785747761347  1.0000
  Au  Au8       1.0  0.005000000976290969  0.0033524526463384586  0.9961660347144013  1.0000
  Au  Au9       1.0  0.005000000976290969  1.911944978511841e-05  0.9969723048206593  1.0000
  Au  Au10      1.0  8.499999863337736e-10  0.0066857856968233495  0.9965691696833062  1.0000
  Au  Au11      1.0  8.499999863337736e-10  0.0033524526463384586  0.9973754398072299  1.0000
  Au  Au12      1.0  8.499999863337736e-10  1.911944978511841e-05  0.995762899988738  1.0000
