data_image0
_chemical_formula_structural       HAl12Fe2
_chemical_formula_sum              "H1 Al12 Fe2"
_cell_length_a       4.947950839996338
_cell_length_b       4.947951198558576
_cell_length_c       105.46222686767578
_cell_angle_alpha    90.0
_cell_angle_beta     90.0
_cell_angle_gamma    98.04740399765996

_space_group_name_H-M_alt    "P 1"
_space_group_IT_number       1

loop_
  _space_group_symop_operation_xyz
  'x, y, z'

loop_
  _atom_site_type_symbol
  _atom_site_label
  _atom_site_symmetry_multiplicity
  _atom_site_fract_x
  _atom_site_fract_y
  _atom_site_fract_z
  _atom_site_occupancy
  H   H1        1.0  0.00853202131178371  0.008532020332187997  0.00022891577405141883  1.0000
  Al  Al1       1.0  0.003236096657789523  0.006779615811515645  0.999778814693581  1.0000
  Al  Al2       1.0  0.00853202131178371  0.008532020332187997  0.00011209234584459615  1.0000
  Al  Al3       1.0  0.003236096657789523  0.006779615811515645  0.9993584958076653  1.0000
  Al  Al4       1.0  0.0014733413896265376  0.001473341271360202  0.9994405397613929  1.0000
  Al  Al5       1.0  0.009719352538296642  0.006082506637477355  0.999568655391917  1.0000
  Al  Al6       1.0  0.006779616348021167  0.0032360964150979572  0.9993584958076653  1.0000
  Al  Al7       1.0  0.008579772926773878  0.00857977240546744  0.9998595279420855  1.0000
  Al  Al8       1.0  0.00028064803328757125  0.00392453607857103  0.0  1.0000
  Al  Al9       1.0  0.003924536190351924  0.0002806480782728626  0.0  1.0000
  Al  Al10      1.0  0.006082506940544699  0.009719351302014722  0.999568655391917  1.0000
  Al  Al11      1.0  0.0014733413896265376  0.001473341271360202  0.999696771022441  1.0000
  Al  Al12      1.0  0.006779616348021167  0.0032360964150979572  0.999778814693581  1.0000
  Fe  Fe1       1.0  0.005452001074406103  0.005452000580105569  0.999975820670694  1.0000
  Fe  Fe2       1.0  0.004609514480297917  0.00460951409692301  0.999568655391917  1.0000
