data_image0
_chemical_formula_structural       CONi18Se12Ni18Se12
_chemical_formula_sum              "C1 O1 Ni36 Se24"
_cell_length_a       9.540348949017933
_cell_length_b       8.576427974624204
_cell_length_c       104.75959777832031
_cell_angle_alpha    89.73314457245691
_cell_angle_beta     86.42071001839464
_cell_angle_gamma    90.97231229906173

_space_group_name_H-M_alt    "P 1"
_space_group_IT_number       1

loop_
  _space_group_symop_operation_xyz
  'x, y, z'

loop_
  _atom_site_type_symbol
  _atom_site_label
  _atom_site_symmetry_multiplicity
  _atom_site_fract_x
  _atom_site_fract_y
  _atom_site_fract_z
  _atom_site_occupancy
  C   C1        1.0  0.009502015828716548  0.0005639993211607572  6.39453767919283e-05  1.0000
  O   O1        1.0  0.009502015828716548  0.0005639993211607572  0.0001784935859602002  1.0000
  Ni  Ni1       1.0  0.009788237780901382  0.009334720932981648  0.9998630407284789  1.0000
  Ni  Ni2       1.0  0.005718159867813296  0.00443600096248937  0.9996915358067388  1.0000
  Ni  Ni3       1.0  0.0018292708284916599  0.004436000635272488  0.999507201009589  1.0000
  Ni  Ni4       1.0  0.009744823933708206  0.003196022833084972  0.9996472994895611  1.0000
  Ni  Ni5       1.0  0.009443275580264565  0.0018164214577964279  0.9999335267963264  1.0000
  Ni  Ni6       1.0  0.0035711935348581468  0.0031678682788193425  0.9998390564454815  1.0000
  Ni  Ni7       1.0  0.00822929531536024  0.0006759786193139639  0.9996930140902689  1.0000
  Ni  Ni8       1.0  0.00434040647168813  0.000675978621630035  0.9995086787229152  1.0000
  Ni  Ni9       1.0  0.002082716398205048  0.0006840369926029808  0.9998894578569154  1.0000
  Ni  Ni10      1.0  0.007940382008297494  0.004436000711881999  0.999322865414487  1.0000
  Ni  Ni11      1.0  0.004051493164625384  0.004436000822790212  0.9991385303315747  1.0000
  Ni  Ni12      1.0  0.00016260414975993896  0.004436000930411459  0.9989541949651541  1.0000
  Ni  Ni13      1.0  0.008078157621819347  0.003196022918083155  0.9990942937276037  1.0000
  Ni  Ni14      1.0  0.005855935090036096  0.003196022943993184  0.999462964122166  1.0000
  Ni  Ni15      1.0  0.0019670462463639866  0.0031960228377171137  0.9992786290393365  1.0000
  Ni  Ni16      1.0  0.0065626286121723285  0.0006759785882069455  0.9991400080460975  1.0000
  Ni  Ni17      1.0  0.0026737399641497445  0.0006759785942795467  0.998955672962113  1.0000
  Ni  Ni18      1.0  0.00045151753019125745  0.000675978622067841  0.9993243433561182  1.0000
  Se  Se1       1.0  0.0007722716726051046  0.0007275408218497762  0.9996911132046684  1.0000
  Se  Se2       1.0  0.006883383096972845  0.0007275407945628086  0.9995067776082156  1.0000
  Se  Se3       1.0  0.004575745069080999  0.0006574352096082745  0.9998766334431795  1.0000
  Se  Se4       1.0  0.007719976556616427  0.0031221085465883425  0.9997998699313989  1.0000
  Se  Se5       1.0  0.0037262849140178873  0.00314446057909775  0.9996020081191532  1.0000
  Se  Se6       1.0  0.001487507204128582  0.003164528308830769  0.9999884296710587  1.0000
  Se  Se7       1.0  0.009105604846157992  0.000727540807922729  0.9991381072180879  1.0000
  Se  Se8       1.0  0.005216716002485883  0.0007275408102388001  0.9989537718507341  1.0000
  Se  Se9       1.0  0.0029944938620016844  0.0007275407893658192  0.9993224422430894  1.0000
  Se  Se10      1.0  0.005948507054502086  0.003144460545674661  0.9992333377268185  1.0000
  Se  Se11      1.0  0.00205961801518045  0.0031444606528263424  0.9990490026450202  1.0000
  Se  Se12      1.0  0.009837395898174195  0.0031444606519507308  0.999417673094131  1.0000
  Ni  Ni19      1.0  0.009788237780901382  0.0043347204638636  0.9998630411824081  1.0000
  Ni  Ni20      1.0  0.005718159867813296  0.009436000562870292  0.9996915359221068  1.0000
  Ni  Ni21      1.0  0.0018292708284916599  0.009436000670021974  0.9995072005558254  1.0000
  Ni  Ni22      1.0  0.009744823933708206  0.00819602330220302  0.9996472996045979  1.0000
  Ni  Ni23      1.0  0.009443275580264565  0.006816421709730195  0.9999335269114459  1.0000
  Ni  Ni24      1.0  0.0035711935348581468  0.00816786853075311  0.9998390565606011  1.0000
  Ni  Ni25      1.0  0.00822929531536024  0.005675978654063449  0.9996930142054713  1.0000
  Ni  Ni26      1.0  0.00434040647168813  0.0056759787649716615  0.999508678838076  1.0000
  Ni  Ni27      1.0  0.002082716398205048  0.005684037081648536  0.999889457972097  1.0000
  Ni  Ni28      1.0  0.007940382008297494  0.009436000746631484  0.9993228655296893  1.0000
  Ni  Ni29      1.0  0.004051493164625384  0.009436000857539695  0.9991385301622941  1.0000
  Ni  Ni30      1.0  0.00016260414975993896  0.009436000965160944  0.9989541950803565  1.0000
  Ni  Ni31      1.0  0.008078157621819347  0.008196022735648359  0.999094293842889  1.0000
  Ni  Ni32      1.0  0.005855935090036096  0.008196022544374104  0.9994629642375339  1.0000
  Ni  Ni33      1.0  0.0019670462463639866  0.008196022655282317  0.9992786291546217  1.0000
  Ni  Ni34      1.0  0.0065626286121723285  0.005675978514364289  0.9991400081613413  1.0000
  Ni  Ni35      1.0  0.0026737399641497445  0.005675978629029032  0.9989556727928324  1.0000
  Ni  Ni36      1.0  0.00045151753019125745  0.005675978874001608  0.9993243434712378  1.0000
  Se  Se13      1.0  0.0007722716726051046  0.005727540693711049  0.999691112750967  1.0000
  Se  Se14      1.0  0.006883383096972845  0.005727540775016223  0.9995067777234388  1.0000
  Se  Se15      1.0  0.004575745069080999  0.005657435407245971  0.9998766335583197  1.0000
  Se  Se16      1.0  0.007719976556616427  0.008122108581337828  0.9997998700466012  1.0000
  Se  Se17      1.0  0.0037262849140178873  0.0081444610482158  0.99960200823419  1.0000
  Se  Se18      1.0  0.001487507204128582  0.00816452790921169  0.9999884297864268  1.0000
  Se  Se19      1.0  0.009105604846157992  0.005727540951264355  0.9991381073332488  1.0000
  Se  Se20      1.0  0.005216716002485883  0.005727541062172567  0.9989537719658537  1.0000
  Se  Se21      1.0  0.0029944938620016844  0.005727540878411375  0.9993224423582711  1.0000
  Se  Se22      1.0  0.005948507054502086  0.008144460363239864  0.9992333378421038  1.0000
  Se  Se23      1.0  0.00205961801518045  0.008144460470391544  0.9990490024758224  1.0000
  Se  Se24      1.0  0.009837395898174195  0.00814446112106878  0.9994176732091677  1.0000
