data_image0
_chemical_formula_structural       COCu3Pt3Cu3Pt3Cu3Pt3Cu3Pt3
_chemical_formula_sum              "C1 O1 Cu12 Pt12"
_cell_length_a       5.535641193389893
_cell_length_b       5.535641168368547
_cell_length_c       108.88675689697266
_cell_angle_alpha    90.0
_cell_angle_beta     90.0
_cell_angle_gamma    120.00000014952188

_space_group_name_H-M_alt    "P 1"
_space_group_IT_number       1

loop_
  _space_group_symop_operation_xyz
  'x, y, z'

loop_
  _atom_site_type_symbol
  _atom_site_label
  _atom_site_symmetry_multiplicity
  _atom_site_fract_x
  _atom_site_fract_y
  _atom_site_fract_z
  _atom_site_occupancy
  C   C1        1.0  0.0008333334324416741  0.0008333338500865696  0.0001590690568704257  1.0000
  O   O1        1.0  0.0008333334324416741  0.0008333338500865696  0.0002692749722270978  1.0000
  Cu  Cu1       1.0  0.0008333334324416741  0.0008333338500865696  0.0  1.0000
  Cu  Cu2       1.0  0.004166666439618768  0.0025000000932487044  0.9992070484972153  1.0000
  Cu  Cu3       1.0  0.0024999998343184075  0.004166666822081174  0.9996038600786995  1.0000
  Pt  Pt1       1.0  0.0024999998343184075  0.004166666822081174  0.9990086427064733  1.0000
  Pt  Pt2       1.0  0.0008333330634256531  0.0008333333644162348  0.9994054542879575  1.0000
  Pt  Pt3       1.0  0.004166667029397086  0.0025000026187344455  0.9998034263581046  1.0000
  Cu  Cu4       1.0  0.000833333591527319  0.0058333339394499115  0.0  1.0000
  Cu  Cu5       1.0  0.004166666479030308  0.007500000279746113  0.9992070484972153  1.0000
  Cu  Cu6       1.0  0.002499999957850516  0.009166667008578582  0.9996038600786995  1.0000
  Pt  Pt4       1.0  0.002499999957850516  0.009166667008578582  0.9990086427064733  1.0000
  Pt  Pt5       1.0  0.0008333332290180466  0.005833333550913643  0.9994054542879575  1.0000
  Pt  Pt6       1.0  0.004166667013734843  0.00750000261096372  0.9998034263581046  1.0000
  Cu  Cu7       1.0  0.005833333371874864  0.0008333338500865696  0.0  1.0000
  Cu  Cu8       1.0  0.00916666621081082  0.0025000000932487044  0.9992070484972153  1.0000
  Cu  Cu9       1.0  0.007499999857872168  0.004166666822081174  0.9996038600786995  1.0000
  Pt  Pt7       1.0  0.007499999857872168  0.004166666822081174  0.9990086427064733  1.0000
  Pt  Pt8       1.0  0.005833333129039697  0.0008333333644162348  0.9994054542879575  1.0000
  Pt  Pt9       1.0  0.009166666800589139  0.0025000026187344455  0.9998034263581046  1.0000
  Cu  Cu10      1.0  0.0058333333627193715  0.0058333339394499115  0.0  1.0000
  Cu  Cu11      1.0  0.009166666586704637  0.007500000279746113  0.9992070484972153  1.0000
  Cu  Cu12      1.0  0.007499999897283706  0.009166667008578582  0.9996038600786995  1.0000
  Pt  Pt10      1.0  0.007499999897283706  0.009166667008578582  0.9990086427064733  1.0000
  Pt  Pt11      1.0  0.005833333168451237  0.005833333550913643  0.9994054542879575  1.0000
  Pt  Pt12      1.0  0.009166667079348887  0.00750000261096372  0.9998034263581046  1.0000
