data_image0
_chemical_formula_structural       HV24Sn8
_chemical_formula_sum              "H1 V24 Sn8"
_cell_length_a       9.823748588562012
_cell_length_b       7.26648120600836
_cell_length_c       99.06592559814453
_cell_angle_alpha    102.61918889489468
_cell_angle_beta     90.0
_cell_angle_gamma    90.0

_space_group_name_H-M_alt    "P 1"
_space_group_IT_number       1

loop_
  _space_group_symop_operation_xyz
  'x, y, z'

loop_
  _atom_site_type_symbol
  _atom_site_label
  _atom_site_symmetry_multiplicity
  _atom_site_fract_x
  _atom_site_fract_y
  _atom_site_fract_z
  _atom_site_occupancy
  H   H1        1.0  0.009458794328569985  0.008885969661078736  0.0001501017645954916  1.0000
  V   V1        1.0  0.0016479258912433003  0.0013023936888411308  0.9994649175135566  1.0000
  V   V2        1.0  0.0016728917390435073  0.006332224797571401  0.999827505127886  1.0000
  V   V3        1.0  0.006647925640962914  0.00880239353648718  0.9996482924040379  1.0000
  V   V4        1.0  0.006912945267313772  0.003807305564499258  0.999996321823422  1.0000
  V   V5        1.0  0.0005230810313332114  0.007897447310161345  4.6478386355066854e-05  1.0000
  V   V6        1.0  0.0009008006360361819  0.0026817058972419708  0.9997304949351298  1.0000
  V   V7        1.0  0.005900800385755795  0.005181706065356677  0.9995471199005012  1.0000
  V   V8        1.0  0.0059602848286667235  7.691850314225718e-05  0.9999150974292257  1.0000
  V   V9        1.0  0.00365942462013444  0.0063023938937309286  0.9994649174446399  1.0000
  V   V10       1.0  0.0036344754576933557  0.0013323866657652355  0.9998275246406474  1.0000
  V   V11       1.0  0.008659424559460407  0.0038023937256162228  0.9996482924792686  1.0000
  V   V12       1.0  0.008394508078965943  0.008807213174961212  0.9999963353123624  1.0000
  V   V13       1.0  0.004406549875341558  0.009923081890219888  0.9995660899565953  1.0000
  V   V14       1.0  0.004380993214143321  0.005228709886402203  0.9999231469371114  1.0000
  V   V15       1.0  0.009406550193880233  0.007423081722105181  0.999749464991224  1.0000
  V   V16       1.0  0.009476918420704427  0.002128239319260855  7.83318438747892e-05  1.0000
  V   V17       1.0  0.004784545309887527  0.002897620079543137  4.643369549430735e-05  1.0000
  V   V18       1.0  0.004406549875341558  0.007681705708112926  0.9997304948598991  1.0000
  V   V19       1.0  0.009406550193880233  0.000181705909719234  0.9995471199702071  1.0000
  V   V20       1.0  0.009347141972723478  0.005077029969102535  0.9999150940290772  1.0000
  V   V21       1.0  0.0009008006360361819  0.004923081553990475  0.9995660900234073  1.0000
  V   V22       1.0  0.0009265616928836737  0.00022875840850918635  0.9999231345502048  1.0000
  V   V23       1.0  0.005900800385755795  0.002423081648554997  0.9997494650622453  1.0000
  V   V24       1.0  0.005830308535589009  0.007127527663442966  7.828125923406159e-05  1.0000
  Sn  Sn1       1.0  0.0018709928365688124  0.004025916411754338  2.9949248308171165e-05  1.0000
  Sn  Sn2       1.0  0.0018203421536752882  0.00880239353648718  0.9996482924040379  1.0000
  Sn  Sn3       1.0  0.006820341524182194  0.0013023936888411308  0.9994649175135566  1.0000
  Sn  Sn4       1.0  0.006827941705262633  0.006212766165086355  0.9998157884808001  1.0000
  Sn  Sn5       1.0  0.0034870087369151593  0.0038023937256162228  0.9996482924792686  1.0000
  Sn  Sn6       1.0  0.0034366132641736723  0.00902586211070434  2.9966957606620184e-05  1.0000
  Sn  Sn7       1.0  0.008479917398613934  0.0012123778516372927  0.9998157260745524  1.0000
  Sn  Sn8       1.0  0.008487008676241126  0.0063023938937309286  0.9994649174446399  1.0000
