data_image0
_chemical_formula_structural       HAl20Au10Al20Au10
_chemical_formula_sum              "H1 Al40 Au20"
_cell_length_a       8.615744590759277
_cell_length_b       12.923616911882212
_cell_length_c       100.76435852050781
_cell_angle_alpha    98.04946681883445
_cell_angle_beta     90.0
_cell_angle_gamma    90.0

_space_group_name_H-M_alt    "P 1"
_space_group_IT_number       1

loop_
  _space_group_symop_operation_xyz
  'x, y, z'

loop_
  _atom_site_type_symbol
  _atom_site_label
  _atom_site_symmetry_multiplicity
  _atom_site_fract_x
  _atom_site_fract_y
  _atom_site_fract_z
  _atom_site_occupancy
  H   H1        1.0  0.001249999930818928  0.004979673693795145  8.738472704387624e-05  1.0000
  Al  Al1       1.0  0.0  0.001416666575448208  0.9996979600157323  1.0000
  Al  Al2       1.0  0.0  0.006749999813681446  0.9994944197129446  1.0000
  Al  Al3       1.0  0.0  0.006143454317112688  0.9999196813178052  1.0000
  Al  Al4       1.0  0.0  0.0020833332848128766  0.9992908797337632  1.0000
  Al  Al5       1.0  0.009999999446551423  0.0006350718133425325  7.54523003022277e-05  1.0000
  Al  Al6       1.0  0.0  0.009083332859773675  0.999596189698614  1.0000
  Al  Al7       1.0  0.0  0.004416666476466476  0.9993926497220468  1.0000
  Al  Al8       1.0  0.0  0.003750000058224548  0.9997997300092443  1.0000
  Al  Al9       1.0  0.0  0.009749999860261083  0.9991891097176357  1.0000
  Al  Al10      1.0  0.0  0.008329149123222149  7.650151828028153e-06  1.0000
  Al  Al11      1.0  0.002499999861637856  0.00941666665114012  0.9993926497133533  1.0000
  Al  Al12      1.0  0.002499999861637856  0.004749999976710181  0.9991891097315576  1.0000
  Al  Al13      1.0  0.002499999861637856  0.004083333267345512  0.9995961897177643  1.0000
  Al  Al14      1.0  0.002499999861637856  0.0034368209853195882  7.12609995282727e-06  1.0000
  Al  Al15      1.0  0.002499999861637856  0.00874999965065271  0.999799729990094  1.0000
  Al  Al16      1.0  0.002499999861637856  0.0017499999301305422  0.9994944197268665  1.0000
  Al  Al17      1.0  0.002499999861637856  0.00708333302280241  0.9992908797172271  1.0000
  Al  Al18      1.0  0.002499999861637856  0.006416666604560482  0.9996979600044247  1.0000
  Al  Al19      1.0  0.002499999861637856  0.0056437986105107515  0.0001013592861731902  1.0000
  Al  Al20      1.0  0.002499999861637856  0.001143633546828001  0.9999056600804818  1.0000
  Au  Au1       1.0  0.0  0.0023035958770591925  0.9999570818543362  1.0000
  Au  Au2       1.0  0.0  0.007583333418729337  0.9997488450024877  1.0000
  Au  Au3       1.0  0.0  0.003583333162541325  0.9991382247334946  1.0000
  Au  Au4       1.0  0.0  0.002916666453176657  0.9995453047197012  1.0000
  Au  Au5       1.0  0.0  0.008249999836971266  0.9993417647152902  1.0000
  Au  Au6       1.0  0.002499999861637856  0.00024999999781657946  0.9996470750219173  1.0000
  Au  Au7       1.0  0.002499999861637856  0.005583332999512591  0.9994435347148815  1.0000
  Au  Au8       1.0  0.002499999861637856  0.004935391013707083  0.9998444640263126  1.0000
  Au  Au9       1.0  0.002499999861637856  0.0009166666162053916  0.9992399947383143  1.0000
  Au  Au10      1.0  0.002500000077828706  0.00951072724416972  4.7494763277471646e-05  1.0000
  Al  Al21      1.0  0.004999999723275712  0.001416666575448208  0.9996979600157323  1.0000
  Al  Al22      1.0  0.004999999723275712  0.006749999813681446  0.9994944197129446  1.0000
  Al  Al23      1.0  0.004999999723275712  0.006143454317112688  0.9999196813178052  1.0000
  Al  Al24      1.0  0.004999999723275712  0.0020833332848128766  0.9992908797337632  1.0000
  Al  Al25      1.0  0.004999999723275712  0.0006350718133425325  7.54523003022277e-05  1.0000
  Al  Al26      1.0  0.004999999723275712  0.009083332859773675  0.999596189698614  1.0000
  Al  Al27      1.0  0.004999999723275712  0.004416666476466476  0.9993926497220468  1.0000
  Al  Al28      1.0  0.004999999723275712  0.003750000058224548  0.9997997300092443  1.0000
  Al  Al29      1.0  0.004999999723275712  0.009749999860261083  0.9991891097176357  1.0000
  Al  Al30      1.0  0.004999999723275712  0.008329149123222149  7.650151828028153e-06  1.0000
  Al  Al31      1.0  0.0074999995849135675  0.00941666665114012  0.9993926497133533  1.0000
  Al  Al32      1.0  0.0074999995849135675  0.004749999976710181  0.9991891097315576  1.0000
  Al  Al33      1.0  0.0074999995849135675  0.004083333267345512  0.9995961897177643  1.0000
  Al  Al34      1.0  0.0074999995849135675  0.0034368209853195882  7.12609995282727e-06  1.0000
  Al  Al35      1.0  0.0074999995849135675  0.00874999965065271  0.999799729990094  1.0000
  Al  Al36      1.0  0.0074999995849135675  0.0017499999301305422  0.9994944197268665  1.0000
  Al  Al37      1.0  0.0074999995849135675  0.00708333302280241  0.9992908797172271  1.0000
  Al  Al38      1.0  0.0074999995849135675  0.006416666604560482  0.9996979600044247  1.0000
  Al  Al39      1.0  0.0074999995849135675  0.0056437986105107515  0.0001013592861731902  1.0000
  Al  Al40      1.0  0.0074999995849135675  0.001143633546828001  0.9999056600804818  1.0000
  Au  Au11      1.0  0.004999999723275712  0.0023035958770591925  0.9999570818543362  1.0000
  Au  Au12      1.0  0.004999999723275712  0.007583333418729337  0.9997488450024877  1.0000
  Au  Au13      1.0  0.004999999723275712  0.003583333162541325  0.9991382247334946  1.0000
  Au  Au14      1.0  0.004999999723275712  0.002916666453176657  0.9995453047197012  1.0000
  Au  Au15      1.0  0.004999999723275712  0.008249999836971266  0.9993417647152902  1.0000
  Au  Au16      1.0  0.0074999995849135675  0.00024999999781657946  0.9996470750219173  1.0000
  Au  Au17      1.0  0.0074999995849135675  0.005583332999512591  0.9994435347148815  1.0000
  Au  Au18      1.0  0.0074999995849135675  0.004935391013707083  0.9998444640263126  1.0000
  Au  Au19      1.0  0.0074999995849135675  0.0009166666162053916  0.9992399947383143  1.0000
  Au  Au20      1.0  0.0074999995849135675  0.00951072724416972  4.7494763277471646e-05  1.0000
