data_image0
_chemical_formula_structural       COV4Ga10V4Ga10
_chemical_formula_sum              "C1 O1 V8 Ga20"
_cell_length_a       9.058459281921387
_cell_length_b       5.412732124328613
_cell_length_c       106.23384094238281
_cell_angle_alpha    90.0
_cell_angle_beta     90.0
_cell_angle_gamma    90.0

_space_group_name_H-M_alt    "P 1"
_space_group_IT_number       1

loop_
  _space_group_symop_operation_xyz
  'x, y, z'

loop_
  _atom_site_type_symbol
  _atom_site_label
  _atom_site_symmetry_multiplicity
  _atom_site_fract_x
  _atom_site_fract_y
  _atom_site_fract_z
  _atom_site_occupancy
  C   C1        1.0  0.007853297633158894  0.004999956929576132  0.00010210075374083921  1.0000
  O   O1        1.0  0.007853297633158894  0.004999956929576132  0.00021505933842764748  1.0000
  V   V1        1.0  0.007102329031120022  0.002500013393263798  0.9992960456708827  1.0000
  V   V2        1.0  0.008581593206778388  0.0025000099520346617  0.9997303737770824  1.0000
  V   V3        1.0  0.0021023291298199933  0.002500013393263798  0.9994163388460533  1.0000
  V   V4        1.0  0.0035596514793467546  0.0025000226845824655  0.9998339507065787  1.0000
  Ga  Ga1       1.0  0.005927829393256797  0.009999986813209951  0.9997461359228432  1.0000
  Ga  Ga2       1.0  0.0073740097497674096  1.3400000071065683e-08  0.9995168893627693  1.0000
  Ga  Ga3       1.0  0.007853297633158894  0.009999956530393553  0.9999390593577824  1.0000
  Ga  Ga4       1.0  0.0023740094372175008  1.3400000071065683e-08  0.9991954951541666  1.0000
  Ga  Ga5       1.0  0.0009905921868655237  5.380000177438431e-08  0.9998265872209784  1.0000
  Ga  Ga6       1.0  0.00969229523940823  1.3400000071065683e-08  0.9993192114187647  1.0000
  Ga  Ga7       1.0  0.00469229492685832  1.3400000071065683e-08  0.9993931730981712  1.0000
  Ga  Ga8       1.0  0.003241401235465705  1.3400000071065683e-08  0.9996218403532404  1.0000
  Ga  Ga9       1.0  0.005075043545769361  4.499999921982228e-08  0.0  1.0000
  Ga  Ga10      1.0  0.00030770530858223623  1.3400000071065683e-08  0.99956936513854  1.0000
  V   V5        1.0  0.007102329031120022  0.007500013682327045  0.9992960456708827  1.0000
  V   V6        1.0  0.008581593206778388  0.0075000102410979095  0.9997303737770824  1.0000
  V   V7        1.0  0.0021023291298199933  0.007500013682327045  0.9994163388460533  1.0000
  V   V8        1.0  0.0035596514793467546  0.0075000226295228  0.9998339507065787  1.0000
  Ga  Ga11      1.0  0.005927829393256797  0.004999986524146703  0.9997461359228432  1.0000
  Ga  Ga12      1.0  0.0073740097497674096  0.005000013365733965  0.9995168893627693  1.0000
  Ga  Ga13      1.0  0.007853297633158894  0.004999956929576132  0.9999390593577824  1.0000
  Ga  Ga14      1.0  0.0023740094372175008  0.005000013365733965  0.9991954951541666  1.0000
  Ga  Ga15      1.0  0.0009905921868655237  0.005000053972237771  0.9998265872209784  1.0000
  Ga  Ga16      1.0  0.00969229523940823  0.005000013365733965  0.9993192114187647  1.0000
  Ga  Ga17      1.0  0.00469229492685832  0.005000013365733965  0.9993931730981712  1.0000
  Ga  Ga18      1.0  0.003241401235465705  0.005000013365733965  0.9996218403532404  1.0000
  Ga  Ga19      1.0  0.005075043545769361  0.005000045025042017  0.0  1.0000
  Ga  Ga20      1.0  0.00030770530858223623  0.005000013365733965  0.99956936513854  1.0000
