data_image0
_chemical_formula_structural       COMn2Zn6Mn2Zn6Mn2Zn6Mn2Zn6
_chemical_formula_sum              "C1 O1 Mn8 Zn24"
_cell_length_a       5.36077356338501
_cell_length_b       7.5812788009643555
_cell_length_c       102.16464233398438
_cell_angle_alpha    90.0
_cell_angle_beta     90.0
_cell_angle_gamma    90.0

_space_group_name_H-M_alt    "P 1"
_space_group_IT_number       1

loop_
  _space_group_symop_operation_xyz
  'x, y, z'

loop_
  _atom_site_type_symbol
  _atom_site_label
  _atom_site_symmetry_multiplicity
  _atom_site_fract_x
  _atom_site_fract_y
  _atom_site_fract_z
  _atom_site_occupancy
  C   C1        1.0  0.006228136813303474  0.004999999429998967  3.306927326299515e-05  1.0000
  O   O1        1.0  0.006228136813303474  0.004999999429998967  0.00015052697726460103  1.0000
  Mn  Mn1       1.0  0.006228136813303474  0.009999999842758336  0.9998635339689778  1.0000
  Mn  Mn2       1.0  0.001228728607716558  2.99999990776907e-10  0.9996087695292722  1.0000
  Zn  Zn1       1.0  0.003869450346355306  0.0025000009434499853  0.9999999521597613  1.0000
  Zn  Zn2       1.0  0.008771271506944673  0.002500000697759885  0.9997391300956902  1.0000
  Zn  Zn3       1.0  0.0062287281872920415  2.99999990776907e-10  0.9996087695292722  1.0000
  Zn  Zn4       1.0  0.0012289262246119742  0.009999998859997934  0.9998887072691922  1.0000
  Zn  Zn5       1.0  0.008588149181039171  0.002499999960689584  0.0  1.0000
  Zn  Zn6       1.0  0.003686659148188409  0.0025000002063796842  0.9997390723373533  1.0000
  Mn  Mn3       1.0  0.0062287281872920415  2.99999990776907e-10  0.999346410159971  1.0000
  Mn  Mn4       1.0  0.001228728607716558  2.99999990776907e-10  0.9990840507906699  1.0000
  Zn  Zn7       1.0  0.003728728701530293  0.0025000002063796842  0.9994775901363304  1.0000
  Zn  Zn8       1.0  0.008728728715428624  0.0025000002063796842  0.9992152304753205  1.0000
  Zn  Zn9       1.0  0.0062287281872920415  2.99999990776907e-10  0.9990840507906699  1.0000
  Zn  Zn10      1.0  0.001228728607716558  2.99999990776907e-10  0.999346410159971  1.0000
  Zn  Zn11      1.0  0.008728728715428624  0.0025000002063796842  0.9994775901363304  1.0000
  Zn  Zn12      1.0  0.003728728701530293  0.0025000002063796842  0.9992152304753205  1.0000
  Mn  Mn5       1.0  0.006228136813303474  0.004999999429998967  0.9998635339689778  1.0000
  Mn  Mn6       1.0  0.001228728607716558  0.004999999921379168  0.9996087695292722  1.0000
  Zn  Zn13      1.0  0.003869450346355306  0.007500000864829153  0.9999999521597613  1.0000
  Zn  Zn14      1.0  0.008771271506944673  0.007500000373448952  0.9997391300956902  1.0000
  Zn  Zn15      1.0  0.0062287281872920415  0.004999999921379168  0.9996087695292722  1.0000
  Zn  Zn16      1.0  0.0012289262246119742  0.004999999429998967  0.9998887072691922  1.0000
  Zn  Zn17      1.0  0.008588149181039171  0.007499999882068752  0.0  1.0000
  Zn  Zn18      1.0  0.003686659148188409  0.007500000373448952  0.9997390723373533  1.0000
  Mn  Mn7       1.0  0.0062287281872920415  0.004999999921379168  0.999346410159971  1.0000
  Mn  Mn8       1.0  0.001228728607716558  0.004999999921379168  0.9990840507906699  1.0000
  Zn  Zn19      1.0  0.003728728701530293  0.007499999882068752  0.9994775901363304  1.0000
  Zn  Zn20      1.0  0.008728728715428624  0.007499999882068752  0.9992152304753205  1.0000
  Zn  Zn21      1.0  0.0062287281872920415  0.004999999921379168  0.9990840507906699  1.0000
  Zn  Zn22      1.0  0.001228728607716558  0.004999999921379168  0.999346410159971  1.0000
  Zn  Zn23      1.0  0.008728728715428624  0.007499999882068752  0.9994775901363304  1.0000
  Zn  Zn24      1.0  0.003728728701530293  0.007499999882068752  0.9992152304753205  1.0000
