data_image0
_chemical_formula_structural       COTi8Cu24Ti8Cu24
_chemical_formula_sum              "C1 O1 Ti16 Cu48"
_cell_length_a       6.256151437137636
_cell_length_b       11.822893039474
_cell_length_c       107.53691101074219
_cell_angle_alpha    104.9020414107883
_cell_angle_beta     88.3949765862259
_cell_angle_gamma    75.09795866763433

_space_group_name_H-M_alt    "P 1"
_space_group_IT_number       1

loop_
  _space_group_symop_operation_xyz
  'x, y, z'

loop_
  _atom_site_type_symbol
  _atom_site_label
  _atom_site_symmetry_multiplicity
  _atom_site_fract_x
  _atom_site_fract_y
  _atom_site_fract_z
  _atom_site_occupancy
  C   C1        1.0  0.003864302429650871  0.005474052776985632  0.00014847459085800985  1.0000
  O   O1        1.0  0.003864302429650871  0.005474052776985632  0.00026006385450025435  1.0000
  Ti  Ti1       1.0  0.007014493033593142  0.00751411200949001  0.999426904664058  1.0000
  Ti  Ti2       1.0  0.00951449301325313  0.0025141120501700363  0.9992814627093408  1.0000
  Ti  Ti3       1.0  0.004514492965597602  0.0025141120501700363  0.9989905787449617  1.0000
  Ti  Ti4       1.0  0.002014492985937615  0.00751411200949001  0.9991360206996789  1.0000
  Ti  Ti5       1.0  0.009157609940312355  0.005014112199330132  0.9991152585030348  1.0000
  Ti  Ti6       1.0  0.001657610490539017  1.4112099642880088e-05  0.9989698166903012  1.0000
  Ti  Ti7       1.0  0.006657610538194544  1.4112099642880088e-05  0.9992607006546803  1.0000
  Ti  Ti8       1.0  0.004157610488350919  0.005014112199330132  0.9994061426134806  1.0000
  Cu  Cu1       1.0  0.009756165590737323  0.00874864028369187  0.9993673433036617  1.0000
  Cu  Cu2       1.0  0.002256165644586364  0.00374863998537168  0.9992219014861208  1.0000
  Cu  Cu3       1.0  0.007256165692241891  0.00374863998537168  0.9995127851733643  1.0000
  Cu  Cu4       1.0  0.004756165543081795  0.00874864028369187  0.9990764596164182  1.0000
  Cu  Cu5       1.0  0.003915937829702169  0.008779584223448463  0.9993202618270387  1.0000
  Cu  Cu6       1.0  0.006415937809362157  0.0037795842641284876  0.9991748198723215  1.0000
  Cu  Cu7       1.0  0.0014159374638595843  0.0037795842641284876  0.9994657037070875  1.0000
  Cu  Cu8       1.0  0.008915937281663606  0.008779584223448463  0.9990293779937286  1.0000
  Cu  Cu9       1.0  0.008364446832903584  0.005014112199330132  0.9993599986358914  1.0000
  Cu  Cu10      1.0  0.000864446936359677  1.4112099642880088e-05  0.9992145568238858  1.0000
  Cu  Cu11      1.0  0.005864446835091681  1.4112099642880088e-05  0.9995054407885077  1.0000
  Cu  Cu12      1.0  0.003364446785248056  0.005014112199330132  0.999069114948648  1.0000
  Cu  Cu13      1.0  0.007807656141001915  0.00751411200949001  0.9991821645312015  1.0000
  Cu  Cu14      1.0  0.0003076563231978922  0.0025141120501700363  0.9990367224459004  1.0000
  Cu  Cu15      1.0  0.005307656073006374  0.0025141120501700363  0.9993276066879007  1.0000
  Cu  Cu16      1.0  0.002807656093346387  0.00751411200949001  0.9994730486426179  1.0000
  Cu  Cu17      1.0  0.005181410043660621  0.0062486397955315584  0.9992466407254643  1.0000
  Cu  Cu18      1.0  0.007681409938570554  0.0012486400057116927  0.9991011987756776  1.0000
  Cu  Cu19      1.0  0.002681409593067982  0.0012486400057116927  0.9993920826104437  1.0000
  Cu  Cu20      1.0  0.00018140969815804922  0.0062486397955315584  0.9989557567615704  1.0000
  Cu  Cu21      1.0  0.0009906934306279122  0.006279584413288583  0.9992955225876952  1.0000
  Cu  Cu22      1.0  0.003490693537412981  0.0012795841997184465  0.9991500806255822  1.0000
  Cu  Cu23      1.0  0.008490693585068508  0.0012795841997184465  0.9994409643128257  1.0000
  Cu  Cu24      1.0  0.00599069347828344  0.006279584413288583  0.9990046384762787  1.0000
  Ti  Ti9       1.0  0.00714226630358469  0.007492189543493305  0.9999960861138719  1.0000
  Ti  Ti10      1.0  0.00949085652615733  0.0024956299278698665  0.9998626478060988  1.0000
  Ti  Ti11      1.0  0.004514492965597602  0.0025141120501700363  0.9995723468207574  1.0000
  Ti  Ti12      1.0  0.002014492985937615  0.00751411200949001  0.9997177887754746  1.0000
  Ti  Ti13      1.0  0.009157609940312355  0.005014112199330132  0.9996970263016948  1.0000
  Ti  Ti14      1.0  0.001657610490539017  1.4112099642880088e-05  0.9995515842118253  1.0000
  Ti  Ti15      1.0  0.006689406695135631  0.009984749654903204  0.9998423079204041  1.0000
  Ti  Ti16      1.0  0.00415459744036176  0.005042691273576842  0.9999809496987464  1.0000
  Cu  Cu25      1.0  0.00981858986799656  0.008804153603135127  0.999955894687364  1.0000
  Cu  Cu26      1.0  0.002256165644586364  0.00374863998537168  0.9998036692847807  1.0000
  Cu  Cu27      1.0  0.0074438743082221905  0.003614419290676598  7.979577048559742e-05  1.0000
  Cu  Cu28      1.0  0.004756165543081795  0.00874864028369187  0.9996582271379425  1.0000
  Cu  Cu29      1.0  0.003887913647202742  0.008816559655055943  0.9999060287065072  1.0000
  Cu  Cu30      1.0  0.006415937809362157  0.0037795842641284876  0.9997565879481172  1.0000
  Cu  Cu31      1.0  0.0015195411174530062  0.00355713910210526  4.0207438064189005e-05  1.0000
  Cu  Cu32      1.0  0.008915937281663606  0.008779584223448463  0.9996111457923885  1.0000
  Cu  Cu33      1.0  0.008467385292421655  0.005009055672101721  0.9999466475920475  1.0000
  Cu  Cu34      1.0  0.000864446936359677  1.4112099642880088e-05  0.9997963248996815  1.0000
  Cu  Cu35      1.0  0.005966390443241363  0.009985888017630009  7.417612052315189e-05  1.0000
  Cu  Cu36      1.0  0.003364446785248056  0.005014112199330132  0.999650882747308  1.0000
  Cu  Cu37      1.0  0.007807656141001915  0.00751411200949001  0.9997639323298614  1.0000
  Cu  Cu38      1.0  0.0003076563231978922  0.0025141120501700363  0.9996184902445603  1.0000
  Cu  Cu39      1.0  0.005270445053313718  0.0024926011304360883  0.9999170556440615  1.0000
  Cu  Cu40      1.0  0.002957603367728751  0.0074698643452394695  4.2466762173233736e-05  1.0000
  Cu  Cu41      1.0  0.005256857819838259  0.006226148487171668  0.9998264926296963  1.0000
  Cu  Cu42      1.0  0.007681409938570554  0.0012486400057116927  0.9996829668514733  1.0000
  Cu  Cu43      1.0  0.0026768488011676326  0.001215012794491929  0.999977632241513  1.0000
  Cu  Cu44      1.0  0.00018140969815804922  0.0062486397955315584  0.9995375245602304  1.0000
  Cu  Cu45      1.0  0.0009995523782024712  0.006277414133902938  0.9998771497393137  1.0000
  Cu  Cu46      1.0  0.003490693537412981  0.0012795841997184465  0.9997318484242421  1.0000
  Cu  Cu47      1.0  0.00857770099326249  0.0012377646245181533  2.1146325780652008e-05  1.0000
  Cu  Cu48      1.0  0.00599069347828344  0.006279584413288583  0.9995864062749387  1.0000
