data_image0
_chemical_formula_structural       COAu8Ca4In4
_chemical_formula_sum              "C1 O1 Au8 Ca4 In4"
_cell_length_a       5.064404487609863
_cell_length_b       7.162149429321289
_cell_length_c       100.38642883300781
_cell_angle_alpha    90.0
_cell_angle_beta     90.0
_cell_angle_gamma    90.0

_space_group_name_H-M_alt    "P 1"
_space_group_IT_number       1

loop_
  _space_group_symop_operation_xyz
  'x, y, z'

loop_
  _atom_site_type_symbol
  _atom_site_label
  _atom_site_symmetry_multiplicity
  _atom_site_fract_x
  _atom_site_fract_y
  _atom_site_fract_z
  _atom_site_occupancy
  C   C1        1.0  0.0033333355940253612  0.002530420339713089  0.00017054576735560901  1.0000
  O   O1        1.0  0.0033333355940253612  0.002530420339713089  0.00029008348628385336  1.0000
  Au  Au1       1.0  0.005000000264809912  0.0075000003328869105  0.9992419324538203  1.0000
  Au  Au2       1.0  0.004999999897018367  0.007485081277834339  0.9997491296782909  1.0000
  Au  Au3       1.0  4.499999748569493e-10  0.0075000003328869105  0.9994941779052049  1.0000
  Au  Au4       1.0  0.009999999058453645  0.00740873574561608  0.9999954227656874  1.0000
  Au  Au5       1.0  4.499999748569493e-10  0.0025000001976516026  0.9994941779052049  1.0000
  Au  Au6       1.0  6.499999734254087e-10  0.0025912666053977216  0.9999954221719354  1.0000
  Au  Au7       1.0  0.005000000264809912  0.0025000001976516026  0.9992419324538203  1.0000
  Au  Au8       1.0  0.0049999987936437335  0.0025149218533831565  0.9997491296782909  1.0000
  Ca  Ca1       1.0  0.00999999390937202  0.004999997274488427  0.9997492430849265  1.0000
  Ca  Ca2       1.0  4.499999748569493e-10  0.005000000395303205  0.9992419324538203  1.0000
  Ca  Ca3       1.0  0.0050000054138915374  0.009999994548976853  0.0  1.0000
  Ca  Ca4       1.0  0.005000000264809912  2.9999999843998627e-10  0.9994941779052049  1.0000
  In  In1       1.0  8.499999719938681e-10  0.009999999750334818  0.9997441480988536  1.0000
  In  In2       1.0  4.499999748569493e-10  2.9999999843998627e-10  0.9992419324538203  1.0000
  In  In3       1.0  0.005000001368184546  0.004999999875167409  0.9999985999327398  1.0000
  In  In4       1.0  0.005000000264809912  0.005000000395303205  0.9994941779052049  1.0000
