data_image0
_chemical_formula_structural       COCa16In6
_chemical_formula_sum              "C1 O1 Ca16 In6"
_cell_length_a       9.759534895717316
_cell_length_b       9.929331178921267
_cell_length_c       109.45507049560547
_cell_angle_alpha    98.90777698886735
_cell_angle_beta     119.56156942698797
_cell_angle_gamma    101.07144924236135

_space_group_name_H-M_alt    "P 1"
_space_group_IT_number       1

loop_
  _space_group_symop_operation_xyz
  'x, y, z'

loop_
  _atom_site_type_symbol
  _atom_site_label
  _atom_site_symmetry_multiplicity
  _atom_site_fract_x
  _atom_site_fract_y
  _atom_site_fract_z
  _atom_site_occupancy
  C   C1        1.0  0.0041274924777612515  0.00386838833559538  0.00041370511594775335  1.0000
  O   O1        1.0  0.0041274924777612515  0.00386838833559538  0.0005233393637204672  1.0000
  Ca  Ca1       1.0  0.0064435027495850965  0.001260078946163574  0.0002818155006176218  1.0000
  Ca  Ca2       1.0  0.0007291901688572721  0.0014553547478128998  0.9997074388465578  1.0000
  Ca  Ca3       1.0  0.009019151735997174  0.006842979145947156  0.9998872903044254  1.0000
  Ca  Ca4       1.0  0.0013517164368352073  0.0044661988713781235  7.014738647350799e-05  1.0000
  Ca  Ca5       1.0  0.0027036789736821654  0.006873218107185613  0.9995483823566121  1.0000
  Ca  Ca6       1.0  0.005597311974870932  0.004657441252448731  0.9994901720420584  1.0000
  Ca  Ca7       1.0  0.006813582655641254  0.009019974079163386  0.999644076508861  1.0000
  Ca  Ca8       1.0  0.007213848667635837  0.0014700362867854672  0.9999756004175439  1.0000
  Ca  Ca9       1.0  0.005252775932372665  0.006870642826411729  0.00013299043206522787  1.0000
  Ca  Ca10      1.0  0.008284818487999288  0.004957561803412535  0.00020202236059045813  1.0000
  Ca  Ca11      1.0  0.0006151282771015697  0.004981442115785826  0.9996990474018634  1.0000
  Ca  Ca12      1.0  0.009384871502314157  0.009065373696730434  0.00022980022365068996  1.0000
  Ca  Ca13      1.0  0.0037752653782982953  0.0009463541207204383  0.9995765751191904  1.0000
  Ca  Ca14      1.0  0.0014840772084232811  0.0009346268389535527  7.841343751961283e-05  1.0000
  Ca  Ca15      1.0  0.0048144194428220086  0.00443085612099962  0.9997987358326743  1.0000
  Ca  Ca16      1.0  0.0030459290990619355  0.009039562523422981  0.99988743611518  1.0000
  In  In1       1.0  0.0009887494106312778  0.002940748574779975  0.9994369635471835  1.0000
  In  In2       1.0  0.002789447020197167  0.008240879287748944  0.0001940375519416656  1.0000
  In  In3       1.0  0.009270072635513936  0.007698766294515435  0.9995810032168801  1.0000
  In  In4       1.0  0.0077506164108872445  0.002954697346031566  0.9997407639430931  1.0000
  In  In5       1.0  0.0060127964617425625  0.007933903580822618  0.9998861032473012  1.0000
  In  In6       1.0  0.0042923843407303534  0.0029529295888781797  3.320654998098412e-05  1.0000
