data_image0
_chemical_formula_structural       COGa20Rh12
_chemical_formula_sum              "C1 O1 Ga20 Rh12"
_cell_length_a       9.200252913120567
_cell_length_b       8.319988377595127
_cell_length_c       39.62406539916992
_cell_angle_alpha    88.32921708773387
_cell_angle_beta     73.20487939046413
_cell_angle_gamma    65.1116610070478

_space_group_name_H-M_alt    "P 1"
_space_group_IT_number       1

loop_
  _space_group_symop_operation_xyz
  'x, y, z'

loop_
  _atom_site_type_symbol
  _atom_site_label
  _atom_site_symmetry_multiplicity
  _atom_site_fract_x
  _atom_site_fract_y
  _atom_site_fract_z
  _atom_site_occupancy
  C   C1        1.0  0.009008525542644714  0.004237599276981642  0.9996446934846417  1.0000
  O   O1        1.0  0.009008525542644714  0.004237599276981642  0.9999475403580709  1.0000
  Ga  Ga1       1.0  0.006593213601971631  0.004638194899952744  0.9976333875405624  1.0000
  Ga  Ga2       1.0  0.0015932138895797877  0.004638194899952744  0.9985916415583704  1.0000
  Ga  Ga3       1.0  0.008409737867194024  0.005445676191309483  0.9990141926759232  1.0000
  Ga  Ga4       1.0  0.0034968947389928877  0.005430187122015479  0.9980466651271164  1.0000
  Ga  Ga5       1.0  0.0015950754477677726  0.009578499623806537  0.9978841131060486  1.0000
  Ga  Ga6       1.0  0.006645848101410957  0.009550524782097855  0.9988260399467864  1.0000
  Ga  Ga7       1.0  0.0035077597404259125  0.0004574530590753996  0.9987525691625062  1.0000
  Ga  Ga8       1.0  0.008495032830068139  0.0004898825532906587  0.9977959395649159  1.0000
  Ga  Ga9       1.0  0.0044276383788971994  0.0072061522309215965  0.9992032359865396  1.0000
  Ga  Ga10      1.0  0.009373283690314248  0.007292827875271644  0.9982425571020866  1.0000
  Ga  Ga11      1.0  0.0009372664401303063  0.0025381211898140494  0.9993567809641052  1.0000
  Ga  Ga12      1.0  0.005716824887001055  0.0027755538984902254  0.9983957497839115  1.0000
  Ga  Ga13      1.0  0.008474481435193634  0.0013277826191916296  0.9990934763882282  1.0000
  Ga  Ga14      1.0  0.0033705653299965204  0.0013129745040289013  0.9981103451991369  1.0000
  Ga  Ga15      1.0  0.006667015948125422  0.00888878976519949  0.9994982857249084  1.0000
  Ga  Ga16      1.0  0.0017195432480732705  0.008755407642042499  0.9985279614889784  1.0000
  Ga  Ga17      1.0  0.0012642025302837079  0.0063652931419496345  0.9993414787441807  1.0000
  Ga  Ga18      1.0  0.006102723390208275  0.006569728801557106  0.9984158742739891  1.0000
  Ga  Ga19      1.0  0.004414450877602833  0.003227008492565056  0.9991986753804116  1.0000
  Ga  Ga20      1.0  0.008987384562142316  0.0034986534686174717  0.998222432274836  1.0000
  Rh  Rh1       1.0  0.004496522693283363  0.007790355525538868  0.9979715536044341  1.0000
  Rh  Rh2       1.0  0.009406414020484352  0.00785200601248717  0.9989617578260455  1.0000
  Rh  Rh3       1.0  0.0005935856180744336  0.002278026496429355  0.9986667531023349  1.0000
  Rh  Rh4       1.0  0.005593585647681155  0.002278026496429355  0.9977084990632447  1.0000
  Rh  Rh5       1.0  0.006252914607377697  0.00953635815625617  0.9982352064342841  1.0000
  Rh  Rh6       1.0  0.0014554793382343823  0.009355675844694274  0.9991755930195843  1.0000
  Rh  Rh7       1.0  0.008837194291885009  0.0005320238657120546  0.9984031004285948  1.0000
  Rh  Rh8       1.0  0.004005218850198097  0.00042150064797942077  0.9993339300884347  1.0000
  Rh  Rh9       1.0  0.008456296568569822  0.005816303875551987  0.9977704228054048  1.0000
  Rh  Rh10      1.0  0.00345629685617798  0.005816303875551987  0.9987286768232128  1.0000
  Rh  Rh11      1.0  0.006686065309240333  0.004200396619456467  0.9988583332665057  1.0000
  Rh  Rh12      1.0  0.0016338117723946955  0.004252078146416237  0.9979096298622739  1.0000
