data_image0
_chemical_formula_structural       COCa24Zn8
_chemical_formula_sum              "C1 O1 Ca24 Zn8"
_cell_length_a       12.472737637370914
_cell_length_b       12.472738231482683
_cell_length_c       99.05699157714844
_cell_angle_alpha    99.57873907487539
_cell_angle_beta     99.57873953543663
_cell_angle_gamma    65.17056638373928

_space_group_name_H-M_alt    "P 1"
_space_group_IT_number       1

loop_
  _space_group_symop_operation_xyz
  'x, y, z'

loop_
  _atom_site_type_symbol
  _atom_site_label
  _atom_site_symmetry_multiplicity
  _atom_site_fract_x
  _atom_site_fract_y
  _atom_site_fract_z
  _atom_site_occupancy
  C   C1        1.0  0.009047228299699308  0.00021413571162479548  0.00034804602746114617  1.0000
  O   O1        1.0  0.009047228299699308  0.00021413571162479548  0.00046918805411662334  1.0000
  Ca  Ca1       1.0  0.000565488305823781  0.005985661150784989  0.9999246722253576  1.0000
  Ca  Ca2       1.0  0.0057212436043487  0.0010038325636852364  0.00012314187542303767  1.0000
  Ca  Ca3       1.0  0.009032718067165685  0.00217423938249847  0.00021380075199644468  1.0000
  Ca  Ca4       1.0  0.004513185809850869  0.00706526180044491  3.226624016489301e-05  1.0000
  Ca  Ca5       1.0  0.006724370267162955  0.007932473225344116  0.9998849816327738  1.0000
  Ca  Ca6       1.0  0.0017067552606369056  0.002847331816342962  8.530523804691868e-05  1.0000
  Ca  Ca7       1.0  0.0032756298784888753  0.00016982582060252297  0.9998595999361101  1.0000
  Ca  Ca8       1.0  0.008228405490203258  0.005227132745221522  7.019772805944145e-05  1.0000
  Ca  Ca9       1.0  0.0012460957629744957  0.008329921938888556  0.00018376488960240902  1.0000
  Ca  Ca10      1.0  0.006360018904230458  0.003207404956537149  0.9999566729325279  1.0000
  Ca  Ca11      1.0  0.008594735069808221  0.009830174274102061  0.999944320140228  1.0000
  Ca  Ca12      1.0  0.0036922113255939354  0.004778684396825978  0.00016159956623731394  1.0000
  Ca  Ca13      1.0  0.000565488305823781  0.005985661150784989  0.9995056206747012  1.0000
  Ca  Ca14      1.0  0.005565488171757892  0.0009856613623737509  0.9997151464516537  1.0000
  Ca  Ca15      1.0  0.009434511881206411  0.00211663727267436  0.9998199093313506  1.0000
  Ca  Ca16      1.0  0.004434511642867052  0.007116637514210977  0.9996103835560893  1.0000
  Ca  Ca17      1.0  0.006724370267162955  0.007932473225344116  0.9994659300821175  1.0000
  Ca  Ca18      1.0  0.00172437019433704  0.0029324731577947283  0.9996754558545045  1.0000
  Ca  Ca19      1.0  0.0032756298784888753  0.00016982582060252297  0.9994405483854536  1.0000
  Ca  Ca20      1.0  0.008275629785801347  0.005169825349124465  0.9996500741489611  1.0000
  Ca  Ca21      1.0  0.001381323721806149  0.00827551960271411  0.9997802187415901  1.0000
  Ca  Ca22      1.0  0.0063813237946320645  0.003275519427945368  0.9995706929641258  1.0000
  Ca  Ca23      1.0  0.008618676258332238  0.009826779146523211  0.9995453112669527  1.0000
  Ca  Ca24      1.0  0.0036186763510197666  0.0048267790122059505  0.9997548370414087  1.0000
  Zn  Zn1       1.0  0.008729717903230577  0.007922010533447195  0.0001255571531158969  1.0000
  Zn  Zn2       1.0  0.0037784895111827137  0.0027726601027158837  0.9999246722286532  1.0000
  Zn  Zn3       1.0  0.0011369352611142198  0.00040848577695807344  3.238055412106486e-05  1.0000
  Zn  Zn4       1.0  0.006367990693706087  0.004763663806780399  0.0002202691706483309  1.0000
  Zn  Zn5       1.0  0.008778489418495185  0.007772659631237827  0.9997151464415043  1.0000
  Zn  Zn6       1.0  0.0037784895111827137  0.0027726601027158837  0.9995056206779968  1.0000
  Zn  Zn7       1.0  0.001221510727156645  0.0003296388089134927  0.9996103835640302  1.0000
  Zn  Zn8       1.0  0.006221510634469117  0.005329638337435435  0.9998199093275377  1.0000
