data_image0
_chemical_formula_structural       COV12Ga4V12Ga4
_chemical_formula_sum              "C1 O1 V24 Ga8"
_cell_length_a       4.802628517150879
_cell_length_b       6.791942596435547
_cell_length_c       103.959716796875
_cell_angle_alpha    90.0
_cell_angle_beta     90.0
_cell_angle_gamma    90.0

_space_group_name_H-M_alt    "P 1"
_space_group_IT_number       1

loop_
  _space_group_symop_operation_xyz
  'x, y, z'

loop_
  _atom_site_type_symbol
  _atom_site_label
  _atom_site_symmetry_multiplicity
  _atom_site_fract_x
  _atom_site_fract_y
  _atom_site_fract_z
  _atom_site_occupancy
  C   C1        1.0  0.003749913387863908  0.009691981882421858  4.2397617150714275e-05  1.0000
  O   O1        1.0  0.003749913387863908  0.009691981882421858  0.00015782660333674638  1.0000
  V   V1        1.0  1.4350000434440387e-08  0.006558018731883264  0.9987759600148846  1.0000
  V   V2        1.0  1.4350000434440387e-08  0.0015580184795793742  0.9991026222798925  1.0000
  V   V3        1.0  1.4350000434440387e-08  0.00405801846860964  0.9992659535557324  1.0000
  V   V4        1.0  1.4350000434440387e-08  0.00905801844667017  0.9989392912907245  1.0000
  V   V5        1.0  0.005000014443112789  0.006558018731883264  0.9989392912907245  1.0000
  V   V6        1.0  0.005000014443112789  0.0015580184795793742  0.9992659535557324  1.0000
  V   V7        1.0  0.005000014443112789  0.00905801844667017  0.9987759600148846  1.0000
  V   V8        1.0  0.005000014443112789  0.00405801846860964  0.9991026222798925  1.0000
  V   V9        1.0  0.007500014489653432  0.0028080186112161864  0.9988576256528046  1.0000
  V   V10       1.0  0.007500014489653432  0.007808018315033359  0.9991842879178126  1.0000
  V   V11       1.0  0.0025000143965721463  0.0028080186112161864  0.9988576256528046  1.0000
  V   V12       1.0  0.0025000143965721463  0.007808018315033359  0.9991842879178126  1.0000
  Ga  Ga1       1.0  0.005000014443112789  0.005308018600246452  0.9993476191936524  1.0000
  Ga  Ga2       1.0  0.005000014443112789  0.00030801845078382175  0.9990209569286445  1.0000
  Ga  Ga3       1.0  1.4350000434440387e-08  0.005308018600246452  0.9990209569286445  1.0000
  Ga  Ga4       1.0  1.4350000434440387e-08  0.00030801845078382175  0.9993476191936524  1.0000
  V   V13       1.0  1.4350000434440387e-08  0.006558018731883264  0.9994292845449005  1.0000
  V   V14       1.0  0.009999986223969757  0.0016376821987310773  0.9997628593277749  1.0000
  V   V15       1.0  1.3535000949495892e-07  0.004039805418676673  0.999913880915182  1.0000
  V   V16       1.0  1.4350000434440387e-08  0.00905801844667017  0.9995926158207404  1.0000
  V   V17       1.0  0.005000014443112789  0.006558018731883264  0.9995926158207404  1.0000
  V   V18       1.0  0.004999906236118478  0.0015759786771356895  0.9999138912353679  1.0000
  V   V19       1.0  0.005000014443112789  0.00905801844667017  0.9994292845449005  1.0000
  V   V20       1.0  0.005000038876950215  0.003978766251617553  0.9997628444208396  1.0000
  V   V21       1.0  0.007500014489653432  0.0028080186112161864  0.9995109498961486  1.0000
  V   V22       1.0  0.007500109897970997  0.007807985954317041  0.9998376846891299  1.0000
  V   V23       1.0  0.0025000143965721463  0.0028080186112161864  0.9995109498961486  1.0000
  V   V24       1.0  0.002499920733528683  0.007807984857343606  0.9998376881291919  1.0000
  Ga  Ga5       1.0  0.005000195951619376  0.0052082170541492764  0.0  1.0000
  Ga  Ga6       1.0  0.005000014443112789  0.00030801845078382175  0.9996742811719885  1.0000
  Ga  Ga7       1.0  1.4350000434440387e-08  0.005308018600246452  0.9996742811719885  1.0000
  Ga  Ga8       1.0  0.009999852807460642  0.0004079499539525655  0.9999999948399071  1.0000
