data_image0
_chemical_formula_structural       COCa6Al48Cu24
_chemical_formula_sum              "C1 O1 Ca6 Al48 Cu24"
_cell_length_a       10.339368769808274
_cell_length_b       12.660418510437012
_cell_length_c       111.02938842773438
_cell_angle_alpha    90.0
_cell_angle_beta     67.81982191285829
_cell_angle_gamma    52.24811449215104

_space_group_name_H-M_alt    "P 1"
_space_group_IT_number       1

loop_
  _space_group_symop_operation_xyz
  'x, y, z'

loop_
  _atom_site_type_symbol
  _atom_site_label
  _atom_site_symmetry_multiplicity
  _atom_site_fract_x
  _atom_site_fract_y
  _atom_site_fract_z
  _atom_site_occupancy
  C   C1        1.0  0.001520207979532164  0.001583032917162826  0.9998578576259228  1.0000
  O   O1        1.0  0.001520207979532164  0.001583032917162826  0.9999659368010312  1.0000
  Ca  Ca1       1.0  0.007679034172263922  0.0010855028671109177  0.9993763047319675  1.0000
  Ca  Ca2       1.0  0.0010123677407086573  0.00441883608288855  0.9985551128459036  1.0000
  Ca  Ca3       1.0  0.0043457012158003355  0.00775216932180295  0.9989657087798192  1.0000
  Ca  Ca4       1.0  0.007679034172263922  0.0010855028671109177  0.9987604108343555  1.0000
  Ca  Ca5       1.0  0.0010123677407086573  0.00441883608288855  0.9991710067435157  1.0000
  Ca  Ca6       1.0  0.004226302397120616  0.007811756917278818  0.9995945173878337  1.0000
  Al  Al1       1.0  0.006516706155977705  0.009923175021216512  0.9992331305341099  1.0000
  Al  Al2       1.0  0.009715780561666424  0.0033916083128449803  0.9996584342942688  1.0000
  Al  Al3       1.0  0.003183372940200073  0.006589841064151069  0.998822534591078  1.0000
  Al  Al4       1.0  0.00884136218855014  0.008760847004930298  0.9989035850322131  1.0000
  Al  Al5       1.0  0.0021746960163089198  0.0020941792553893957  0.9993141809322569  1.0000
  Al  Al6       1.0  0.005779815505814908  0.005215557517621646  0.9997186545542401  1.0000
  Al  Al7       1.0  0.006516706155977705  0.003410159270706039  0.9986172366364979  1.0000
  Al  Al8       1.0  0.009850038853127246  0.006743492898591509  0.9990278325977626  1.0000
  Al  Al9       1.0  0.003183372940200073  7.682575501111074e-05  0.99943842848869  1.0000
  Al  Al10      1.0  0.005508029491400598  0.008914497579454832  0.9991088829685604  1.0000
  Al  Al11      1.0  0.008775576289578294  0.0022934609800025455  0.9995260310824943  1.0000
  Al  Al12      1.0  0.0021746960163089198  0.005581164340540431  0.9986982870346448  1.0000
  Al  Al13      1.0  0.008412320875814644  0.0068187889497236896  0.9988507359249285  1.0000
  Al  Al14      1.0  0.0017456541849453335  0.00015212219511436166  0.999261331843205  1.0000
  Al  Al15      1.0  0.004967877814839448  0.003558852465480143  0.9996867601651216  1.0000
  Al  Al16      1.0  0.0036124147715636597  0.004218742025388943  0.9988753831432933  1.0000
  Al  Al17      1.0  0.0069457479873412924  0.007552075393960367  0.9992859790863252  1.0000
  Al  Al18      1.0  0.00015012184443537947  0.00100355953501806  0.9997007871077394  1.0000
  Al  Al19      1.0  0.005078987660037012  0.0012855963710494685  0.9990560338795085  1.0000
  Al  Al20      1.0  0.008415690921157178  0.004616924870449204  0.9994655418190285  1.0000
  Al  Al21      1.0  0.0017456541849453335  0.007952263379302557  0.9986454382140113  1.0000
  Al  Al22      1.0  0.00027908145854326015  0.008685549742503594  0.9990806816381286  1.0000
  Al  Al23      1.0  0.003515646548997227  0.0020724094815719896  0.999503279124982  1.0000
  Al  Al24      1.0  0.0069457479873412924  0.005352216478104579  0.9986700857255498  1.0000
  Al  Al25      1.0  0.006516706155977705  0.009923175021216512  0.9986172366364979  1.0000
  Al  Al26      1.0  0.009850038853127246  0.003256508107687482  0.9990278325977626  1.0000
  Al  Al27      1.0  0.003183372940200073  0.006589841064151069  0.99943842848869  1.0000
  Al  Al28      1.0  0.005508029491400598  0.005427512788550807  0.9991088829685604  1.0000
  Al  Al29      1.0  0.008774636535475389  0.008781053459133888  0.9995260302995606  1.0000
  Al  Al30      1.0  0.0021746960163089198  0.0020941792553893957  0.9986982870346448  1.0000
  Al  Al31      1.0  0.006516706155977705  0.003410159270706039  0.9992331305341099  1.0000
  Al  Al32      1.0  0.009715545104512606  0.006742794607208667  0.9996584484771486  1.0000
  Al  Al33      1.0  0.003183372940200073  7.682575501111074e-05  0.998822534591078  1.0000
  Al  Al34      1.0  0.00884136218855014  0.0022478312544198225  0.9989035850322131  1.0000
  Al  Al35      1.0  0.0021746960163089198  0.005581164340540431  0.9993141809322569  1.0000
  Al  Al36      1.0  0.005779258499243981  0.008854625787001734  0.9997187390934672  1.0000
  Al  Al37      1.0  0.005078987660037012  0.0034854555811522667  0.9990560338795085  1.0000
  Al  Al38      1.0  0.00841534499621974  0.006817163898669107  0.9994655223069222  1.0000
  Al  Al39      1.0  0.0017456541849453335  0.00015212219511436166  0.9986454382140113  1.0000
  Al  Al40      1.0  0.00027908145854326015  0.0008854085583153983  0.9990806816381286  1.0000
  Al  Al41      1.0  0.0035158423311019986  0.004261584675925396  0.9995032835156819  1.0000
  Al  Al42      1.0  0.0069457479873412924  0.007552075393960367  0.9986700857255498  1.0000
  Al  Al43      1.0  0.008412320875814644  0.004618930033867902  0.9988507359249285  1.0000
  Al  Al44      1.0  0.0017456541849453335  0.007952263379302557  0.999261331843205  1.0000
  Al  Al45      1.0  0.004967964944358923  0.0013226384325330178  0.9996867506599768  1.0000
  Al  Al46      1.0  0.0036124147715636597  0.0020188828152861446  0.9988753831432933  1.0000
  Al  Al47      1.0  0.0069457479873412924  0.005352216478104579  0.9992859790863252  1.0000
  Al  Al48      1.0  0.00014996055109873312  0.008695622123314217  0.999700767009971  1.0000
  Cu  Cu1       1.0  0.006012367823689152  0.004418835735381412  0.9988630598025291  1.0000
  Cu  Cu2       1.0  0.009345701039466784  0.0077521696924468565  0.999273655745561  1.0000
  Cu  Cu3       1.0  0.002671544062377168  0.0010073648757403238  0.9996803126333007  1.0000
  Cu  Cu4       1.0  0.0043457012158003355  0.0027521693453427115  0.9986577615625949  1.0000
  Cu  Cu5       1.0  0.007679034172263922  0.006085502843571158  0.9990683575147432  1.0000
  Cu  Cu6       1.0  0.0010542380128119892  0.009397061730823159  0.9994754097897977  1.0000
  Cu  Cu7       1.0  0.007710397168878119  0.0010694603277219279  0.9996651148686572  1.0000
  Cu  Cu8       1.0  0.0010123677407086573  0.00441883608288855  0.9988630595262913  1.0000
  Cu  Cu9       1.0  0.0043457012158003355  0.00775216932180295  0.9992736554602069  1.0000
  Cu  Cu10      1.0  0.009345701039466784  0.0027521697159866173  0.9986577618479491  1.0000
  Cu  Cu11      1.0  0.0026790343485974736  0.0060855030614212725  0.9990683577662256  1.0000
  Cu  Cu12      1.0  0.006021198504213517  0.009432284107587341  0.9994751624019758  1.0000
  Cu  Cu13      1.0  0.009345701039466784  0.0077521696924468565  0.9986577618479491  1.0000
  Cu  Cu14      1.0  0.0026790343485974736  0.0010855026435905172  0.9990683577662256  1.0000
  Cu  Cu15      1.0  0.006021934956104314  0.0043956258328818705  0.9994751338272624  1.0000
  Cu  Cu16      1.0  0.0010123677407086573  0.00941883605934879  0.9988630595262913  1.0000
  Cu  Cu17      1.0  0.0043457012158003355  0.0027521693453427115  0.9992736554602069  1.0000
  Cu  Cu18      1.0  0.007419805181215791  0.006215145586808231  0.9996855758431122  1.0000
  Cu  Cu19      1.0  0.007679034172263922  0.0010855028671109177  0.9990683575147432  1.0000
  Cu  Cu20      1.0  0.0009495777617393999  0.004450863409198758  0.999485312748337  1.0000
  Cu  Cu21      1.0  0.0043457012158003355  0.00775216932180295  0.9986577615625949  1.0000
  Cu  Cu22      1.0  0.006012367823689152  0.009418836300335673  0.9988630598025291  1.0000
  Cu  Cu23      1.0  0.009345701039466784  0.0027521697159866173  0.999273655745561  1.0000
  Cu  Cu24      1.0  0.002672388129597078  0.006170722764367805  0.9996802700753916  1.0000
