data_image0
_chemical_formula_structural       HV4Pt8V4Pt8V4Pt8
_chemical_formula_sum              "H1 V12 Pt24"
_cell_length_a       8.454731941223145
_cell_length_b       8.150957868831036
_cell_length_c       100.2520751953125
_cell_angle_alpha    109.71896245658408
_cell_angle_beta     90.0
_cell_angle_gamma    90.0

_space_group_name_H-M_alt    "P 1"
_space_group_IT_number       1

loop_
  _space_group_symop_operation_xyz
  'x, y, z'

loop_
  _atom_site_type_symbol
  _atom_site_label
  _atom_site_symmetry_multiplicity
  _atom_site_fract_x
  _atom_site_fract_y
  _atom_site_fract_z
  _atom_site_occupancy
  H   H1        1.0  0.008294950743500399  0.008189598290987627  0.00020046559879025115  1.0000
  V   V1        1.0  1.9999999936964128e-10  0.005011636476573603  0.9994624539136242  1.0000
  V   V2        1.0  1.9999999936964128e-10  1.1636199985868616e-05  0.9995996175204379  1.0000
  V   V3        1.0  0.005000000387742094  0.002511636321211102  0.9995310357165628  1.0000
  V   V4        1.0  0.005000000387742094  0.007511636146428288  0.9993938718000929  1.0000
  Pt  Pt1       1.0  0.008396852009361307  0.002511636321211102  0.9995310357165628  1.0000
  Pt  Pt2       1.0  0.008396852009361307  0.007511636146428288  0.9993938718000929  1.0000
  Pt  Pt3       1.0  0.006603147832016928  0.005011636476573603  0.9994624539136242  1.0000
  Pt  Pt4       1.0  0.006603147832016928  1.1636199985868616e-05  0.9995996175204379  1.0000
  Pt  Pt5       1.0  0.003396852502851244  0.005011636476573603  0.9994624539136242  1.0000
  Pt  Pt6       1.0  0.003396852502851244  1.1636199985868616e-05  0.9995996175204379  1.0000
  Pt  Pt7       1.0  0.0016031479950448535  0.002511636321211102  0.9995310357165628  1.0000
  Pt  Pt8       1.0  0.0016031479950448535  0.007511636146428288  0.9993938718000929  1.0000
  V   V5        1.0  1.9999999936964128e-10  0.005011636476573603  0.9997367812137724  1.0000
  V   V6        1.0  0.009999999894252156  0.009972938415733773  0.9998838770880555  1.0000
  V   V7        1.0  0.005000000387742094  0.002511636321211102  0.999805363016711  1.0000
  V   V8        1.0  0.005000000387742094  0.007511636146428288  0.999668199397515  1.0000
  Pt  Pt9       1.0  0.008396852009361307  0.002511636321211102  0.999805363016711  1.0000
  Pt  Pt10      1.0  0.008396852009361307  0.007511636146428288  0.999668199397515  1.0000
  Pt  Pt11      1.0  0.006603147832016928  0.005011636476573603  0.9997367812137724  1.0000
  Pt  Pt12      1.0  0.006609514292822152  0.009930895380818039  0.9998752125136516  1.0000
  Pt  Pt13      1.0  0.003396852502851244  0.005011636476573603  0.9997367812137724  1.0000
  Pt  Pt14      1.0  0.003390486262354027  0.009930895380818039  0.9998752128109255  1.0000
  Pt  Pt15      1.0  0.0016031479950448535  0.002511636321211102  0.999805363016711  1.0000
  Pt  Pt16      1.0  0.0016031479950448535  0.007511636146428288  0.999668199397515  1.0000
  V   V9        1.0  0.009999999894252156  0.004815133013760954  0.9999999255047157  1.0000
  V   V10       1.0  0.009999999013020126  0.009973042314406598  0.0001211648332861889  1.0000
  V   V11       1.0  0.004999999947126078  0.002322959729915342  6.372514367940316e-05  1.0000
  V   V12       1.0  0.004999999947126078  0.007439859641787516  0.9999590864547329  1.0000
  Pt  Pt17      1.0  0.008387132020063552  0.0024371713170340255  8.010777652252752e-05  1.0000
  Pt  Pt18      1.0  0.008404086043100677  0.007413867495299819  0.9999557811908623  1.0000
  Pt  Pt19      1.0  0.006589902914596687  0.004882871064380419  1.2450525863502994e-05  1.0000
  Pt  Pt20      1.0  0.0066058514518868745  0.009988363970093589  0.00014806154821377343  1.0000
  Pt  Pt21      1.0  0.0034100956578074224  0.004882872035396052  1.2450552501119656e-05  1.0000
  Pt  Pt22      1.0  0.003394147781441259  0.009988362999077955  0.00014806152157615673  1.0000
  Pt  Pt23      1.0  0.001612869085882646  0.0024371703460183917  8.010774988491088e-05  1.0000
  Pt  Pt24      1.0  0.0015959135206894668  0.007413867980807636  0.9999557809069072  1.0000
