data_image0
_chemical_formula_structural       HNi2Sb4Ni2Sb4
_chemical_formula_sum              "H1 Ni4 Sb8"
_cell_length_a       5.239474296569824
_cell_length_b       6.4264140129089355
_cell_length_c       101.53726196289062
_cell_angle_alpha    90.0
_cell_angle_beta     90.0
_cell_angle_gamma    90.0

_space_group_name_H-M_alt    "P 1"
_space_group_IT_number       1

loop_
  _space_group_symop_operation_xyz
  'x, y, z'

loop_
  _atom_site_type_symbol
  _atom_site_label
  _atom_site_symmetry_multiplicity
  _atom_site_fract_x
  _atom_site_fract_y
  _atom_site_fract_z
  _atom_site_occupancy
  H   H1        1.0  0.009999998777072097  0.010000000139124195  0.00010151495353562919  1.0000
  Ni  Ni1       1.0  1.1000000026014852e-09  1.500000047308492e-10  0.9996181260947733  1.0000
  Ni  Ni2       1.0  0.0050000011660475355  0.0050000000695620975  0.9994240021976802  1.0000
  Sb  Sb1       1.0  0.0022170978983477754  0.003580031009577161  0.9996181260947733  1.0000
  Sb  Sb2       1.0  0.007782904433747295  0.006419969419389104  0.9996181260947733  1.0000
  Sb  Sb3       1.0  0.007217097642386121  0.0014199693498270075  0.9994240021976802  1.0000
  Sb  Sb4       1.0  0.0027829045119578005  0.008580030789297187  0.9994240021976802  1.0000
  Ni  Ni3       1.0  0.009999998777072097  0.010000000139124195  0.9999801756673383  1.0000
  Ni  Ni4       1.0  0.004999999033033751  0.005000003547666955  0.9998110826978714  1.0000
  Sb  Sb5       1.0  0.0020876036980293183  0.003509793290570637  0.0  1.0000
  Sb  Sb6       1.0  0.007912399700572644  0.006490209167290129  0.0  1.0000
  Sb  Sb7       1.0  0.007225493184639862  0.0014754335286117624  0.999806213347262  1.0000
  Sb  Sb8       1.0  0.0027745144799896687  0.008524560813671004  0.999806213347262  1.0000
