data_image0
_chemical_formula_structural       COIr8Ti8
_chemical_formula_sum              "C1 O1 Ir8 Ti8"
_cell_length_a       4.5709660254272135
_cell_length_b       5.445534710528062
_cell_length_c       104.70183563232422
_cell_angle_alpha    87.75582215794105
_cell_angle_beta     87.32615390968976
_cell_angle_gamma    82.21079565905296

_space_group_name_H-M_alt    "P 1"
_space_group_IT_number       1

loop_
  _space_group_symop_operation_xyz
  'x, y, z'

loop_
  _atom_site_type_symbol
  _atom_site_label
  _atom_site_symmetry_multiplicity
  _atom_site_fract_x
  _atom_site_fract_y
  _atom_site_fract_z
  _atom_site_occupancy
  C   C1        1.0  0.004367054252614494  0.007876027897913395  1.0478126605784201e-05  1.0000
  O   O1        1.0  0.004367054252614494  0.007876027897913395  0.00012508952998972205  1.0000
  Ir  Ir1       1.0  0.0048948904660532306  0.004642857136935562  0.999609586951193  1.0000
  Ir  Ir2       1.0  0.009090122898347297  0.004160184042937199  0.9999451837874817  1.0000
  Ir  Ir3       1.0  0.004526907708500246  0.007982597197103493  0.9998447800412082  1.0000
  Ir  Ir4       1.0  0.00930860749165393  0.0008429091631309095  0.9997293299678425  1.0000
  Ir  Ir5       1.0  0.006323461994400262  0.008928571922036454  0.9991361086124227  1.0000
  Ir  Ir6       1.0  0.00025203321704810467  0.008214285836665041  0.9994912172045156  1.0000
  Ir  Ir7       1.0  0.005609176495504473  0.001785714349864739  0.9993728477417838  1.0000
  Ir  Ir8       1.0  0.000966318968115404  0.005357142876881458  0.9992544779960252  1.0000
  Ti  Ti1       1.0  0.00437242170040409  0.002732105485259958  0.9998672093838177  1.0000
  Ti  Ti2       1.0  0.009747966868297032  0.0059589950286138334  0.9997317779819871  1.0000
  Ti  Ti3       1.0  0.004894890404744999  0.009642857316556832  0.9996095865638417  1.0000
  Ti  Ti4       1.0  0.009625203858252215  0.009155637386461671  0.9999617505792541  1.0000
  Ti  Ti5       1.0  0.005609176461766542  0.006785714356773249  0.9993728476393681  1.0000
  Ti  Ti6       1.0  0.0009663189033148749  0.00035714284838385293  0.9992544780986855  1.0000
  Ti  Ti7       1.0  0.006323462110849093  0.0039285713969896665  0.9991361084310854  1.0000
  Ti  Ti8       1.0  0.0002520332273639621  0.0032142856570437713  0.9994912170226908  1.0000
