data_image0
_chemical_formula_structural       HRe4Se8Re4Se8
_chemical_formula_sum              "H1 Re8 Se16"
_cell_length_a       6.826305081118182
_cell_length_b       7.235488050061143
_cell_length_c       110.21681213378906
_cell_angle_alpha    104.14796376990047
_cell_angle_beta     118.81263852555153
_cell_angle_gamma    91.82629977326089

_space_group_name_H-M_alt    "P 1"
_space_group_IT_number       1

loop_
  _space_group_symop_operation_xyz
  'x, y, z'

loop_
  _atom_site_type_symbol
  _atom_site_label
  _atom_site_symmetry_multiplicity
  _atom_site_fract_x
  _atom_site_fract_y
  _atom_site_fract_z
  _atom_site_occupancy
  H   H1        1.0  0.00514209995762333  0.006645361890703929  0.00033430838082469384  1.0000
  Re  Re1       1.0  0.0029956341494959244  0.0049084597125581995  0.9997208777702752  1.0000
  Re  Re2       1.0  0.006672317066852062  0.005091540697389413  0.999642753055439  1.0000
  Re  Re3       1.0  0.002742902772033833  0.004967849254478769  0.9993696812274672  1.0000
  Re  Re4       1.0  0.006925048644268492  0.005032150616064092  0.9993858029366977  1.0000
  Se  Se1       1.0  0.0036979937997365436  0.0022383200240317334  0.9992289582171502  1.0000
  Se  Se2       1.0  0.0059699577558929165  0.007761680520767067  0.9995265259619927  1.0000
  Se  Se3       1.0  0.0032614032945233237  0.0025541971994208885  0.9995151175080138  1.0000
  Se  Se4       1.0  0.006406548177509856  0.007445802940824348  0.999240366391745  1.0000
  Se  Se5       1.0  0.0008993906410430749  0.007084522044755854  0.9992076976436612  1.0000
  Se  Se6       1.0  0.008768560636355074  0.002915478095489382  0.9995477865206851  1.0000
  Se  Se7       1.0  0.0011783702718623766  0.006824740401322659  0.9995302582501026  1.0000
  Se  Se8       1.0  0.008489581314292166  0.003175260008624953  0.9992252259277876  1.0000
  Re  Re5       1.0  0.0034468342743449545  0.004934326867403714  0.0003145212918592074  1.0000
  Re  Re6       1.0  0.006094474912385192  0.005035936158608265  0.00023883554576233136  1.0000
  Re  Re7       1.0  0.002742902772033833  0.004967849254478769  0.9999778284271243  1.0000
  Re  Re8       1.0  0.006925048644268492  0.005032150616064092  0.9999939495955603  1.0000
  Se  Se9       1.0  0.0036979937997365436  0.0022383200240317334  0.9998371051464101  1.0000
  Se  Se10      1.0  0.006052605672748025  0.007749889132905051  0.00014373332942833588  1.0000
  Se  Se11      1.0  0.002915506570652627  0.0023699891283619676  0.00010821132143260018  1.0000
  Se  Se12      1.0  0.006406548177509856  0.007445802940824348  0.9998485133210049  1.0000
  Se  Se13      1.0  0.0008993906410430749  0.007084522044755854  0.999815844572921  1.0000
  Se  Se14      1.0  0.009100609386168345  0.0034575887706598065  0.00022810343488438247  1.0000
  Se  Se15      1.0  0.0012166398855579944  0.0067668709019910725  0.00014489782429745823  1.0000
  Se  Se16      1.0  0.008489581314292166  0.003175260008624953  0.9998333731274447  1.0000
