data_image0
_chemical_formula_structural       COAl6Au12Cu6
_chemical_formula_sum              "C1 O1 Al6 Au12 Cu6"
_cell_length_a       6.342845439910889
_cell_length_b       7.768367351632991
_cell_length_c       104.15726470947266
_cell_angle_alpha    94.34775343527663
_cell_angle_beta     90.0
_cell_angle_gamma    114.09484278606008

_space_group_name_H-M_alt    "P 1"
_space_group_IT_number       1

loop_
  _space_group_symop_operation_xyz
  'x, y, z'

loop_
  _atom_site_type_symbol
  _atom_site_label
  _atom_site_symmetry_multiplicity
  _atom_site_fract_x
  _atom_site_fract_y
  _atom_site_fract_z
  _atom_site_occupancy
  C   C1        1.0  0.00520799968646341  0.00044909264426204384  0.00012602067872160666  1.0000
  O   O1        1.0  0.00520799968646341  0.00044909264426204384  0.00024123131095323168  1.0000
  Al  Al1       1.0  0.006904163878838975  0.00383279209968114  0.9997811838432044  1.0000
  Al  Al2       1.0  0.0026800336163744997  0.005384240982511052  0.9994952923244278  1.0000
  Al  Al3       1.0  0.0012406062516897463  0.0024955997530332237  1.1403666999603726e-05  1.0000
  Al  Al4       1.0  0.009763366704457689  0.009550907614035231  0.9996319333136667  1.0000
  Al  Al5       1.0  0.00559670046257865  0.0012175739556338982  0.9993586507606973  1.0000
  Al  Al6       1.0  0.003964701648030915  0.00796245474716066  0.9999040076399192  1.0000
  Au  Au1       1.0  0.0045550336203036244  0.004134240834912609  0.999290330158452  1.0000
  Au  Au2       1.0  0.002868381631438601  0.000755390779066418  0.9998397594238186  1.0000
  Au  Au3       1.0  0.008721700165078464  0.002467573971448017  0.999563612925928  1.0000
  Au  Au4       1.0  0.0051330131057075595  0.0053988669339812235  0.9999917972960037  1.0000
  Au  Au5       1.0  0.0008050335278262839  0.006634240602972197  0.9997002544874232  1.0000
  Au  Au6       1.0  0.006638366936065713  0.008300907466436788  0.999426971433819  1.0000
  Au  Au7       1.0  0.00023663333381267117  0.005393309852585759  0.9999917429853077  1.0000
  Au  Au8       1.0  0.005805033504333419  0.006634240602972197  0.9997002544874232  1.0000
  Au  Au9       1.0  0.0016383666658977662  0.008300907466436788  0.999426971433819  1.0000
  Au  Au10      1.0  0.00955503359681076  0.004134240834912609  0.999290330158452  1.0000
  Au  Au11      1.0  0.007859294951172472  0.0007534974336763442  0.9998402585989132  1.0000
  Au  Au12      1.0  0.0037217001885713284  0.002467573971448017  0.999563612925928  1.0000
  Cu  Cu1       1.0  0.0018429631224353023  0.0037202872947192413  0.9997657657757393  1.0000
  Cu  Cu2       1.0  0.0076800333886956  0.005384240982511052  0.9994952923244278  1.0000
  Cu  Cu3       1.0  0.006247761936876662  0.002528659432245634  1.4297362658612576e-05  1.0000
  Cu  Cu4       1.0  0.004763366881663638  0.009550907614035231  0.9996319333136667  1.0000
  Cu  Cu5       1.0  0.0005967001522617626  0.0012175739556338982  0.9993586507606973  1.0000
  Cu  Cu6       1.0  0.008996490778357744  0.008019146782148137  0.9999122281813162  1.0000
