data_image0
_chemical_formula_structural       COCu10Sn10Cu10Sn10
_chemical_formula_sum              "C1 O1 Cu20 Sn20"
_cell_length_a       11.18745368214322
_cell_length_b       6.672399142780165
_cell_length_c       110.03439331054688
_cell_angle_alpha    66.57235307865494
_cell_angle_beta     83.12159842936249
_cell_angle_gamma    61.37660093642684

_space_group_name_H-M_alt    "P 1"
_space_group_IT_number       1

loop_
  _space_group_symop_operation_xyz
  'x, y, z'

loop_
  _atom_site_type_symbol
  _atom_site_label
  _atom_site_symmetry_multiplicity
  _atom_site_fract_x
  _atom_site_fract_y
  _atom_site_fract_z
  _atom_site_occupancy
  C   C1        1.0  0.005429390985929271  0.004064637562118507  0.9998900237826459  1.0000
  O   O1        1.0  0.005429390985929271  0.004064637562118507  0.9999990808143399  1.0000
  Cu  Cu1       1.0  0.004250000252787846  0.008416666904325559  0.9986352821344868  1.0000
  Cu  Cu2       1.0  0.008250000338903931  0.006416666451115577  0.9987565607919339  1.0000
  Cu  Cu3       1.0  0.00025000000194490995  0.0004166666459406004  0.9991203957590026  1.0000
  Cu  Cu4       1.0  0.0022500000031726117  0.00441666668877447  0.9988778392211846  1.0000
  Cu  Cu5       1.0  0.006249999954020364  0.0024166667537161447  0.9989991173260951  1.0000
  Cu  Cu6       1.0  0.0032499998312441485  0.0014166666998283726  0.9987565604237691  1.0000
  Cu  Cu7       1.0  0.007249999995072358  0.009416667130930551  0.9988778387664363  1.0000
  Cu  Cu8       1.0  0.00924999974139432  0.003416666807603917  0.9986352819913722  1.0000
  Cu  Cu9       1.0  0.0012499998396988156  0.007416666677720568  0.9989991172101474  1.0000
  Cu  Cu10      1.0  0.005249999835636012  0.005416666569945024  0.9991203958603642  1.0000
  Sn  Sn1       1.0  0.005750000196938087  0.007250000088431216  0.9988576256524718  1.0000
  Sn  Sn2       1.0  0.009750000192875283  0.005249999980655671  0.9989789043026887  1.0000
  Sn  Sn3       1.0  0.0017499999557775195  0.009249999850772322  0.9987363475552603  1.0000
  Sn  Sn4       1.0  0.0037499999473228525  0.0032499998728801266  0.9991001827391696  1.0000
  Sn  Sn5       1.0  0.007749999898170605  0.001249999937821801  0.9986150691446382  1.0000
  Sn  Sn6       1.0  0.002749999973235346  0.009583333720219902  0.9990193303200279  1.0000
  Sn  Sn7       1.0  0.006749999723949171  0.0075833332670099205  0.9991406089815589  1.0000
  Sn  Sn8       1.0  0.008750000050896763  0.0015833332891177251  0.998898051920251  1.0000
  Sn  Sn9       1.0  0.0007499998913212409  0.005583333504668814  0.9986554951635505  1.0000
  Sn  Sn10      1.0  0.004750000054959566  0.0035833333968932697  0.9987767738117252  1.0000
  Cu  Cu11      1.0  0.004250000252787846  0.008416666904325559  0.9992416743756198  1.0000
  Cu  Cu12      1.0  0.008250000338903931  0.006416666451115577  0.9993629524913759  1.0000
  Cu  Cu13      1.0  0.0004051733792572559  0.000795053370145701  0.9996867221784008  1.0000
  Cu  Cu14      1.0  0.0022102076146737573  0.004463545250894393  0.9994816281018608  1.0000
  Cu  Cu15      1.0  0.006252298147156242  0.0023435502007211743  0.9996031714181517  1.0000
  Cu  Cu16      1.0  0.0032499998312441485  0.0014166666998283726  0.9993629529357476  1.0000
  Cu  Cu17      1.0  0.007216642511889655  0.009453716356122764  0.9994788524748011  1.0000
  Cu  Cu18      1.0  0.00924999974139432  0.003416666807603917  0.9992416745033508  1.0000
  Cu  Cu19      1.0  0.001295292270740661  0.007434294887950574  0.9996014301309186  1.0000
  Cu  Cu20      1.0  0.005273961394150788  0.005318649548218182  0.9997178068185087  1.0000
  Sn  Sn11      1.0  0.005750000196938087  0.007250000088431216  0.9994640178936048  1.0000
  Sn  Sn12      1.0  0.009633914229891304  0.005516143052171588  0.9995941044247277  1.0000
  Sn  Sn13      1.0  0.0017499999557775195  0.009249999850772322  0.9993427397963933  1.0000
  Sn  Sn14      1.0  0.003790280762790558  0.0031613607052707834  0.9997001140631696  1.0000
  Sn  Sn15      1.0  0.007749999898170605  0.001249999937821801  0.9992214613857713  1.0000
  Sn  Sn16      1.0  0.002954754671004384  0.009488964486156269  0.9996310812693009  1.0000
  Sn  Sn17      1.0  0.006505717866900631  0.007730924275774869  0.9997343934569588  1.0000
  Sn  Sn18      1.0  0.008699774067236467  0.001620990651637693  0.9995076623282292  1.0000
  Sn  Sn19      1.0  0.0007499998913212409  0.005583333504668814  0.9992618874046835  1.0000
  Sn  Sn20      1.0  0.004750000054959566  0.0035833333968932697  0.9993831655111672  1.0000
