data_image0
_chemical_formula_structural       HPt32
_chemical_formula_sum              "H1 Pt32"
_cell_length_a       5.642512798309326
_cell_length_b       7.97971773147583
_cell_length_c       103.85507202148438
_cell_angle_alpha    90.0
_cell_angle_beta     90.0
_cell_angle_gamma    90.0

_space_group_name_H-M_alt    "P 1"
_space_group_IT_number       1

loop_
  _space_group_symop_operation_xyz
  'x, y, z'

loop_
  _atom_site_type_symbol
  _atom_site_label
  _atom_site_symmetry_multiplicity
  _atom_site_fract_x
  _atom_site_fract_y
  _atom_site_fract_z
  _atom_site_occupancy
  H   H1        1.0  0.003749999762321406  0.006250000093368974  0.00014443247698511046  1.0000
  Pt  Pt1       1.0  0.001249999920773802  0.006250000093368974  0.9998641734738944  1.0000
  Pt  Pt2       1.0  0.001249999920773802  0.001250000018673795  0.9995925204216832  1.0000
  Pt  Pt3       1.0  0.003749999762321406  0.003750000056021385  0.0  1.0000
  Pt  Pt4       1.0  0.003749999762321406  0.003750000056021385  0.9997283469477889  1.0000
  Pt  Pt5       1.0  0.001249999920773802  0.001250000018673795  0.9993208673694721  1.0000
  Pt  Pt6       1.0  0.0062499996038690095  0.001250000018673795  0.9990492140303002  1.0000
  Pt  Pt7       1.0  0.003749999762321406  0.003750000056021385  0.9994566938955777  1.0000
  Pt  Pt8       1.0  0.003749999762321406  0.003750000056021385  0.9991850405564059  1.0000
  Pt  Pt9       1.0  0.001249999920773802  0.001250000018673795  0.9998641734738944  1.0000
  Pt  Pt10      1.0  0.001249999920773802  0.006250000093368974  0.9995925204216832  1.0000
  Pt  Pt11      1.0  0.003749999762321406  0.008749999663871693  0.0  1.0000
  Pt  Pt12      1.0  0.003749999762321406  0.008749999663871693  0.9997283469477889  1.0000
  Pt  Pt13      1.0  0.001249999920773802  0.006250000093368974  0.9993208673694721  1.0000
  Pt  Pt14      1.0  0.0062499996038690095  0.006250000093368974  0.9990492140303002  1.0000
  Pt  Pt15      1.0  0.003749999762321406  0.008749999663871693  0.9994566938955777  1.0000
  Pt  Pt16      1.0  0.003749999762321406  0.008749999663871693  0.9991850405564059  1.0000
  Pt  Pt17      1.0  0.0062499996038690095  0.006250000093368974  0.9998641734738944  1.0000
  Pt  Pt18      1.0  0.0062499996038690095  0.001250000018673795  0.9995925204216832  1.0000
  Pt  Pt19      1.0  0.008749999445416615  0.003750000056021385  0.0  1.0000
  Pt  Pt20      1.0  0.008749999445416615  0.003750000056021385  0.9997283469477889  1.0000
  Pt  Pt21      1.0  0.0062499996038690095  0.001250000018673795  0.9993208673694721  1.0000
  Pt  Pt22      1.0  0.001249999920773802  0.001250000018673795  0.9990492140303002  1.0000
  Pt  Pt23      1.0  0.008749999445416615  0.003750000056021385  0.9994566938955777  1.0000
  Pt  Pt24      1.0  0.008749999445416615  0.003750000056021385  0.9991850405564059  1.0000
  Pt  Pt25      1.0  0.0062499996038690095  0.001250000018673795  0.9998641734738944  1.0000
  Pt  Pt26      1.0  0.0062499996038690095  0.006250000093368974  0.9995925204216832  1.0000
  Pt  Pt27      1.0  0.008749999445416615  0.008749999663871693  0.0  1.0000
  Pt  Pt28      1.0  0.008749999445416615  0.008749999663871693  0.9997283469477889  1.0000
  Pt  Pt29      1.0  0.0062499996038690095  0.006250000093368974  0.9993208673694721  1.0000
  Pt  Pt30      1.0  0.001249999920773802  0.006250000093368974  0.9990492140303002  1.0000
  Pt  Pt31      1.0  0.008749999445416615  0.008749999663871693  0.9994566938955777  1.0000
  Pt  Pt32      1.0  0.008749999445416615  0.008749999663871693  0.9991850405564059  1.0000
