data_image0
_chemical_formula_structural       COAu4Ca4In8
_chemical_formula_sum              "C1 O1 Au4 Ca4 In8"
_cell_length_a       6.016965939858402
_cell_length_b       7.831686019897461
_cell_length_c       100.14185333251953
_cell_angle_alpha    90.0
_cell_angle_beta     91.25234882950554
_cell_angle_gamma    90.0

_space_group_name_H-M_alt    "P 1"
_space_group_IT_number       1

loop_
  _space_group_symop_operation_xyz
  'x, y, z'

loop_
  _atom_site_type_symbol
  _atom_site_label
  _atom_site_symmetry_multiplicity
  _atom_site_fract_x
  _atom_site_fract_y
  _atom_site_fract_z
  _atom_site_occupancy
  C   C1        1.0  0.004426194440967675  0.007487246571925781  2.381137974749363e-05  1.0000
  O   O1        1.0  0.004426194440967675  0.007487246571925781  0.0001436410445151766  1.0000
  Au  Au1       1.0  0.006158893909925569  0.007487266074354996  0.9996297490954618  1.0000
  Au  Au2       1.0  0.0034845792456298526  0.0024872653798782484  0.999801076331048  1.0000
  Au  Au3       1.0  0.009016037060783586  0.007487266074354996  0.9991997612232644  1.0000
  Au  Au4       1.0  0.006277563858460219  0.002487266331216259  0.9993818993810797  1.0000
  Ca  Ca1       1.0  0.0010499355217901771  0.007487257987981907  0.9997584101192445  1.0000
  Ca  Ca2       1.0  0.008509254465030973  0.002487266331216259  0.9996887027432079  1.0000
  Ca  Ca3       1.0  0.003927203303354815  0.007487266074354996  0.9993229463285358  1.0000
  Ca  Ca4       1.0  0.0013663973619846192  0.002487266331216259  0.9992587145433159  1.0000
  In  In1       1.0  0.006019912231030802  0.009507053707094808  0.9998970096526114  1.0000
  In  In2       1.0  0.006019946910652137  0.0054674275450316235  0.9998970108885569  1.0000
  In  In3       1.0  0.0009839631157109148  0.0005136079488910474  1.2885666353219155e-06  1.0000
  In  In4       1.0  0.0009839974856927737  0.004460900038211824  1.2921829826963805e-06  1.0000
  In  In5       1.0  0.008905074038811689  0.009481587339892097  0.9994478043806199  1.0000
  In  In6       1.0  0.008905074038811689  0.005492945284486901  0.9994478043806199  1.0000
  In  In7       1.0  0.003531383419934623  0.0004929456305361023  0.9995638443931161  1.0000
  In  In8       1.0  0.003531383419934623  0.004481587358918857  0.9995638443931161  1.0000
