data_image0
_chemical_formula_structural       COAg8Al4
_chemical_formula_sum              "C1 O1 Ag8 Al4"
_cell_length_a       4.667067050933838
_cell_length_b       5.114678520392397
_cell_length_c       100.9133071899414
_cell_angle_alpha    94.18712018043716
_cell_angle_beta     90.0
_cell_angle_gamma    90.0

_space_group_name_H-M_alt    "P 1"
_space_group_IT_number       1

loop_
  _space_group_symop_operation_xyz
  'x, y, z'

loop_
  _atom_site_type_symbol
  _atom_site_label
  _atom_site_symmetry_multiplicity
  _atom_site_fract_x
  _atom_site_fract_y
  _atom_site_fract_z
  _atom_site_occupancy
  C   C1        1.0  0.0074999999680716795  0.00927070425488676  0.00010210251228483313  1.0000
  O   O1        1.0  0.0074999999680716795  0.00927070425488676  0.00022101611296054656  1.0000
  Ag  Ag1       1.0  0.002499999856322558  0.008956652479956072  0.9995787200982319  1.0000
  Ag  Ag2       1.0  0.002499999856322558  0.0038960261369598813  0.999437788157106  1.0000
  Ag  Ag3       1.0  0.0074999999680716795  0.000512397602601941  0.9994198600553863  1.0000
  Ag  Ag4       1.0  0.0074999999680716795  0.005451771354545012  0.9992789283301996  1.0000
  Ag  Ag5       1.0  0.0025000006545305674  0.004559722416060606  1.687386113037439e-05  1.0000
  Ag  Ag6       1.0  0.002499999856322558  0.00948760249233732  0.9998842115520626  1.0000
  Ag  Ag7       1.0  0.0074999999680716795  0.006358970408302625  0.9998709425950122  1.0000
  Ag  Ag8       1.0  0.0074999999680716795  0.001166057067265793  0.9997165500953779  1.0000
  Al  Al1       1.0  0.002499999856322558  0.008607565926524466  0.9992855250947233  1.0000
  Al  Al2       1.0  0.0074999999680716795  0.005800857542825611  0.9995721230370309  1.0000
  Al  Al3       1.0  0.0025000000558745607  0.004299180599972199  0.9997352176944819  1.0000
  Al  Al4       1.0  0.0074999999680716795  0.0016866010975422683  0.9999890682860371  1.0000
