data_image0
_chemical_formula_structural       CONi9V3Ni9V3Ni9V3Ni9V3
_chemical_formula_sum              "C1 O1 Ni36 V12"
_cell_length_a       7.110980987548828
_cell_length_b       8.82881453902888
_cell_length_c       38.06700134277344
_cell_angle_alpha    89.14686735465092
_cell_angle_beta     90.0
_cell_angle_gamma    113.74797695126375

_space_group_name_H-M_alt    "P 1"
_space_group_IT_number       1

loop_
  _space_group_symop_operation_xyz
  'x, y, z'

loop_
  _atom_site_type_symbol
  _atom_site_label
  _atom_site_symmetry_multiplicity
  _atom_site_fract_x
  _atom_site_fract_y
  _atom_site_fract_z
  _atom_site_occupancy
  C   C1        1.0  0.00023738959728081632  0.0004783962430463216  0.00024071387292230344  1.0000
  O   O1        1.0  0.00023738959728081632  0.0004783962430463216  0.0005559477761520342  1.0000
  Ni  Ni1       1.0  0.0007497077057898179  0.0015062990573430537  0.9993603217287057  1.0000
  Ni  Ni2       1.0  0.0027302365455900775  0.00046770634497112423  0.9997706124557427  1.0000
  Ni  Ni3       1.0  0.0012494023529528782  0.00250041384883332  0.9999740990994316  1.0000
  Ni  Ni4       1.0  0.0017626104101172316  0.003532293660330847  0.9985297934840012  1.0000
  Ni  Ni5       1.0  0.0037626103668286157  0.0025322936806166504  0.9989492250693693  1.0000
  Ni  Ni6       1.0  0.0022626102862488826  0.0045322934095245486  0.9991589410000306  1.0000
  Ni  Ni7       1.0  0.0027626103582993576  0.0005322936635581341  0.9976909304305472  1.0000
  Ni  Ni8       1.0  0.004762610231282565  0.0045322934095245486  0.9981103622908747  1.0000
  Ni  Ni9       1.0  0.0032626103193413936  0.001532293585642207  0.9983200779459797  1.0000
  V   V1        1.0  0.004260246073755891  0.003526117094201901  0.999597207573712  1.0000
  V   V2        1.0  0.0002626104076380742  0.0005322936635581341  0.9987395095311488  1.0000
  V   V3        1.0  0.0012626104189811332  0.0025322936806166504  0.9979006463602135  1.0000
  Ni  Ni10      1.0  0.0007497076274182059  0.006506298955914036  0.9993603216116222  1.0000
  Ni  Ni11      1.0  0.0027302365267219166  0.005467706387617416  0.9997706123381617  1.0000
  Ni  Ni12      1.0  0.0012494026049054189  0.007500413977924797  0.9999740989815521  1.0000
  Ni  Ni13      1.0  0.0017626104840968767  0.008532293789422324  0.9985297937575673  1.0000
  Ni  Ni14      1.0  0.003762610375173226  0.0075322935791876326  0.9989492249522859  1.0000
  Ni  Ni15      1.0  0.0022626103586937275  0.009532293538616026  0.9991589408821511  1.0000
  Ni  Ni16      1.0  0.002762610392645229  0.00553229361975924  0.9976909307047105  1.0000
  Ni  Ni17      1.0  0.004762610357701223  0.009532293538616026  0.9981103621729952  1.0000
  Ni  Ni18      1.0  0.00326261026877688  0.006532293368952942  0.9983200778292942  1.0000
  V   V4        1.0  0.004260245968119253  0.008526116762252388  0.9995972074574246  1.0000
  V   V5        1.0  0.0002626103992653347  0.00553229361975924  0.9987395094138664  1.0000
  V   V6        1.0  0.0012626103789795309  0.0075322935791876326  0.99790064624313  1.0000
  Ni  Ni19      1.0  0.0057497075838345785  0.0015062990573430537  0.9993603217287057  1.0000
  Ni  Ni20      1.0  0.007730236482724653  0.00046770634497112423  0.9997706124557427  1.0000
  Ni  Ni21      1.0  0.006249402184122277  0.00250041384883332  0.9999740990994316  1.0000
  Ni  Ni22      1.0  0.006762610063313734  0.003532293660330847  0.9985297934840012  1.0000
  Ni  Ni23      1.0  0.00876261030396319  0.0025322936806166504  0.9989492250693693  1.0000
  Ni  Ni24      1.0  0.007262609937910586  0.0045322934095245486  0.9991589410000306  1.0000
  Ni  Ni25      1.0  0.007762610295433933  0.0005322936635581341  0.9976909304305472  1.0000
  Ni  Ni26      1.0  0.00976261016841714  0.0045322934095245486  0.9981103622908747  1.0000
  Ni  Ni27      1.0  0.008262610256475969  0.001532293585642207  0.9983200779459797  1.0000
  V   V7        1.0  0.009260246010890467  0.003526117094201901  0.999597207573712  1.0000
  V   V8        1.0  0.005262610064927379  0.0005322936635581341  0.9987395095311488  1.0000
  V   V9        1.0  0.006262610073456636  0.0025322936806166504  0.9979006463602135  1.0000
  Ni  Ni28      1.0  0.005749707564552781  0.006506298955914036  0.9993603216116222  1.0000
  Ni  Ni29      1.0  0.007730236273541244  0.005467706387617416  0.9997706123381617  1.0000
  Ni  Ni30      1.0  0.006249402280100728  0.007500413977924797  0.9999740989815521  1.0000
  Ni  Ni31      1.0  0.006762610421231453  0.008532293789422324  0.9985297937575673  1.0000
  Ni  Ni32      1.0  0.008762610022742126  0.0075322935791876326  0.9989492249522859  1.0000
  Ni  Ni33      1.0  0.007262610295828303  0.009532293538616026  0.9991589408821511  1.0000
  Ni  Ni34      1.0  0.007762610043027931  0.00553229361975924  0.9976909307047105  1.0000
  Ni  Ni35      1.0  0.009762610002456323  0.009532293538616026  0.9981103621729952  1.0000
  Ni  Ni36      1.0  0.008262609917624782  0.006532293368952942  0.9983200778292942  1.0000
  V   V10       1.0  0.009260245614409156  0.008526116762252388  0.9995972074574246  1.0000
  V   V11       1.0  0.00526261033639991  0.00553229361975924  0.9987395094138664  1.0000
  V   V12       1.0  0.006262610316114106  0.0075322935791876326  0.99790064624313  1.0000
