data_image0
_chemical_formula_structural       HCu3Ga3Pt6Cu3Ga3Pt6Cu3Ga3Pt6Cu3Ga3Pt6
_chemical_formula_sum              "H1 Cu12 Ga12 Pt24"
_cell_length_a       8.71914005279541
_cell_length_b       8.719140048915868
_cell_length_c       102.03616333007812
_cell_angle_alpha    90.0
_cell_angle_beta     90.0
_cell_angle_gamma    120.00000001471868

_space_group_name_H-M_alt    "P 1"
_space_group_IT_number       1

loop_
  _space_group_symop_operation_xyz
  'x, y, z'

loop_
  _atom_site_type_symbol
  _atom_site_label
  _atom_site_symmetry_multiplicity
  _atom_site_fract_x
  _atom_site_fract_y
  _atom_site_fract_z
  _atom_site_occupancy
  H   H1        1.0  0.005000003110172618  0.0008333287640826789  0.00012074658720552375  1.0000
  Cu  Cu1       1.0  0.0008333267603160962  5.750000142702201e-09  0.9994170658014785  1.0000
  Cu  Cu2       1.0  0.0041666599660630755  0.001666672452027042  0.9990682115944352  1.0000
  Cu  Cu3       1.0  0.0025000088020344317  0.0033333236899697064  0.9997566977063626  1.0000
  Ga  Ga1       1.0  0.00249999337723827  0.00333333898384449  0.9992426388439949  1.0000
  Ga  Ga2       1.0  0.0008333362254004532  0.009999993764045895  0.999959880429942  1.0000
  Ga  Ga3       1.0  0.0041666599660630755  0.001666672452027042  0.9995914930510381  1.0000
  Pt  Pt1       1.0  0.0025000031509562533  0.0033333286234777013  0.0  1.0000
  Pt  Pt2       1.0  0.0008333267603160962  5.750000142702201e-09  0.9996787063837419  1.0000
  Pt  Pt3       1.0  0.0041666599660630755  0.001666672452027042  0.9993298524687747  1.0000
  Pt  Pt4       1.0  0.004166673230394624  0.0016666583915292568  0.9998577186435722  1.0000
  Pt  Pt5       1.0  0.00249999337723827  0.00333333898384449  0.9995042791341822  1.0000
  Pt  Pt6       1.0  0.0008333267603160962  5.750000142702201e-09  0.999155425219215  1.0000
  Cu  Cu4       1.0  0.0008333268049375835  0.005000005762337338  0.9994170658014785  1.0000
  Cu  Cu5       1.0  0.004166660102324328  0.006666672540830186  0.9990682115944352  1.0000
  Cu  Cu6       1.0  0.002500008761551194  0.008333323532097451  0.9997566977063626  1.0000
  Ga  Ga4       1.0  0.002499993583430431  0.008333339319323034  0.9992426388439949  1.0000
  Ga  Ga5       1.0  0.0008333366193726731  0.00499999441526895  0.999959880429942  1.0000
  Ga  Ga6       1.0  0.004166660102324328  0.006666672540830186  0.9995914930510381  1.0000
  Pt  Pt7       1.0  0.0025000031104730146  0.008333328465605446  0.0  1.0000
  Pt  Pt8       1.0  0.0008333268049375835  0.005000005762337338  0.9996787063837419  1.0000
  Pt  Pt9       1.0  0.004166660102324328  0.006666672540830186  0.9993298524687747  1.0000
  Pt  Pt10      1.0  0.004166673136504595  0.0066666582336570015  0.9998577186435722  1.0000
  Pt  Pt11      1.0  0.002499993583430431  0.008333339319323034  0.9995042791341822  1.0000
  Pt  Pt12      1.0  0.0008333268049375835  0.005000005762337338  0.999155425219215  1.0000
  Cu  Cu7       1.0  0.005833326683410318  5.750000142702201e-09  0.9994170658014785  1.0000
  Cu  Cu8       1.0  0.00916666010278446  0.001666672452027042  0.9990682115944352  1.0000
  Cu  Cu9       1.0  0.007500008725128653  0.0033333236899697064  0.9997566977063626  1.0000
  Ga  Ga7       1.0  0.0074999933003324915  0.00333333898384449  0.9992426388439949  1.0000
  Ga  Ga8       1.0  0.005833336308715047  0.009999993764045895  0.999959880429942  1.0000
  Ga  Ga9       1.0  0.00916666010278446  0.001666672452027042  0.9995914930510381  1.0000
  Pt  Pt13      1.0  0.007500003074050475  0.0033333286234777013  0.0  1.0000
  Pt  Pt14      1.0  0.005833326683410318  5.750000142702201e-09  0.9996787063837419  1.0000
  Pt  Pt15      1.0  0.00916666010278446  0.001666672452027042  0.9993298524687747  1.0000
  Pt  Pt16      1.0  0.009166672726234521  0.0016666583915292568  0.9998577186435722  1.0000
  Pt  Pt17      1.0  0.0074999933003324915  0.00333333898384449  0.9995042791341822  1.0000
  Pt  Pt18      1.0  0.005833326683410318  5.750000142702201e-09  0.999155425219215  1.0000
  Cu  Cu10      1.0  0.005833326621218223  0.005000005762337338  0.9994170658014785  1.0000
  Cu  Cu11      1.0  0.00916666007882534  0.006666672540830186  0.9990682115944352  1.0000
  Cu  Cu12      1.0  0.007500008791458997  0.008333323532097451  0.9997566977063626  1.0000
  Ga  Ga10      1.0  0.0074999936133382334  0.008333339319323034  0.9992426388439949  1.0000
  Ga  Ga11      1.0  0.005833336542466895  0.00499999441526895  0.999959880429942  1.0000
  Ga  Ga12      1.0  0.00916666007882534  0.006666672540830186  0.9995914930510381  1.0000
  Pt  Pt19      1.0  0.007500003140380818  0.008333328465605446  0.0  1.0000
  Pt  Pt20      1.0  0.005833326621218223  0.005000005762337338  0.9996787063837419  1.0000
  Pt  Pt21      1.0  0.00916666007882534  0.006666672540830186  0.9993298524687747  1.0000
  Pt  Pt22      1.0  0.009166673006192026  0.0066666582336570015  0.9998577186435722  1.0000
  Pt  Pt23      1.0  0.0074999936133382334  0.008333339319323034  0.9995042791341822  1.0000
  Pt  Pt24      1.0  0.005833326621218223  0.005000005762337338  0.999155425219215  1.0000
