data_image0
_chemical_formula_structural       COSi2Sn2Pt10Si2Sn2Pt10
_chemical_formula_sum              "C1 O1 Si4 Sn4 Pt20"
_cell_length_a       5.7002129554748535
_cell_length_b       8.195989156415141
_cell_length_c       104.20127868652344
_cell_angle_alpha    110.34939317585567
_cell_angle_beta     90.0
_cell_angle_gamma    69.65060682414435

_space_group_name_H-M_alt    "P 1"
_space_group_IT_number       1

loop_
  _space_group_symop_operation_xyz
  'x, y, z'

loop_
  _atom_site_type_symbol
  _atom_site_label
  _atom_site_symmetry_multiplicity
  _atom_site_fract_x
  _atom_site_fract_y
  _atom_site_fract_z
  _atom_site_occupancy
  C   C1        1.0  0.0008149909310155414  0.008441515786956767  0.00011958576300729863  1.0000
  O   O1        1.0  0.0008149909310155414  0.008441515786956767  0.00023474715896435488  1.0000
  Si  Si1       1.0  0.00752218616385657  0.005019911180536211  0.9990583973688183  1.0000
  Si  Si2       1.0  0.002522186372987861  0.005019911180536211  0.9993319166954959  1.0000
  Sn  Sn1       1.0  2.2186150589732616e-05  1.9911400271254485e-05  0.9991951570324472  1.0000
  Sn  Sn2       1.0  0.005022186263120339  1.9911400271254485e-05  0.9994686763591247  1.0000
  Pt  Pt1       1.0  0.0010421362897027058  0.002980011229470171  0.9991393616807093  1.0000
  Pt  Pt2       1.0  0.006042136243955235  0.002980011229470171  0.9994128810073869  1.0000
  Pt  Pt3       1.0  0.009002235953254537  0.007059811392608984  0.9992509521047368  1.0000
  Pt  Pt4       1.0  0.004002236162385829  0.007059811392608984  0.9989774327780592  1.0000
  Pt  Pt5       1.0  0.006042136243955235  0.002980011229470171  0.9991393616807093  1.0000
  Pt  Pt6       1.0  0.0010421362897027058  0.002980011229470171  0.9994128810073869  1.0000
  Pt  Pt7       1.0  0.004002236162385829  0.007059811392608984  0.9992509521047368  1.0000
  Pt  Pt8       1.0  0.009002235953254537  0.007059811392608984  0.9989774327780592  1.0000
  Pt  Pt9       1.0  2.2186150589732616e-05  1.9911400271254485e-05  0.9994686763591247  1.0000
  Pt  Pt10      1.0  0.005022186263120339  1.9911400271254485e-05  0.9991951570324472  1.0000
  Si  Si3       1.0  0.00752218616385657  0.005019911180536211  0.9996054360221736  1.0000
  Si  Si4       1.0  0.002552347541206382  0.0049615318045014975  0.9998778822393181  1.0000
  Sn  Sn3       1.0  7.724805112353657e-05  0.009896265525682763  0.9997386558674562  1.0000
  Sn  Sn4       1.0  0.004918072844995715  0.00023874250005504112  1.3848422873154984e-05  1.0000
  Pt  Pt11      1.0  0.0010421362897027058  0.002980011229470171  0.9996864003340644  1.0000
  Pt  Pt12      1.0  0.0061310563502017445  0.0029769511865290928  0.9999528490912528  1.0000
  Pt  Pt13      1.0  0.009005493809324493  0.007028469182062195  0.9998091131881891  1.0000
  Pt  Pt14      1.0  0.004002236162385829  0.007059811392608984  0.9995244714314143  1.0000
  Pt  Pt15      1.0  0.006042136243955235  0.002980011229470171  0.9996864003340644  1.0000
  Pt  Pt16      1.0  0.0009638111877486108  0.002974807538228592  0.9999527715818471  1.0000
  Pt  Pt17      1.0  0.004026835524523201  0.00702803069075027  0.9998090462812095  1.0000
  Pt  Pt18      1.0  0.009002235953254537  0.007059811392608984  0.9995244714314143  1.0000
  Pt  Pt19      1.0  0.00997781407292605  0.00012114050048203977  3.31342695111158e-06  1.0000
  Pt  Pt20      1.0  0.005037262720040217  0.009980088360091939  0.9997363879122791  1.0000
