data_image0
_chemical_formula_structural       V3Si6V3Si6H
_chemical_formula_sum              "V6 Si12 H1"
_cell_length_a       4.582751862097735
_cell_length_b       6.397009372711182
_cell_length_c       106.66201782226562
_cell_angle_alpha    90.0
_cell_angle_beta     119.99999919767241
_cell_angle_gamma    90.0

_space_group_name_H-M_alt    "P 1"
_space_group_IT_number       1

loop_
  _space_group_symop_operation_xyz
  'x, y, z'

loop_
  _atom_site_type_symbol
  _atom_site_label
  _atom_site_symmetry_multiplicity
  _atom_site_fract_x
  _atom_site_fract_y
  _atom_site_fract_z
  _atom_site_occupancy
  V   V1        1.0  0.005814209095546222  0.003425666708701375  0.9996106090405591  1.0000
  V   V2        1.0  0.005814209095546222  0.006759000278856526  0.9993957835136108  1.0000
  V   V3        1.0  0.0008142093395949171  9.233340242299281e-05  0.9993957834965009  1.0000
  Si  Si1       1.0  0.007557371962442273  9.233340242299281e-05  0.9995406440614316  1.0000
  Si  Si2       1.0  0.009185790172307692  0.006759000278856526  0.9996805743722278  1.0000
  Si  Si3       1.0  0.009185790172307692  0.003425666708701375  0.9994706787367905  1.0000
  Si  Si4       1.0  0.004071046697974585  9.233340242299281e-05  0.9996805745885868  1.0000
  Si  Si5       1.0  0.002442628018784751  0.006759000278856526  0.9995406442677083  1.0000
  Si  Si6       1.0  0.002442628018784751  0.003425666708701375  0.9997505396237367  1.0000
  V   V4        1.0  0.005765722251528091  0.0034255878004481534  3.6076797470547455e-05  1.0000
  V   V5        1.0  0.005814209095546222  0.006759000278856526  0.9998254354057343  1.0000
  V   V6        1.0  0.0008142093395949171  9.233340242299281e-05  0.9998254351092154  1.0000
  Si  Si7       1.0  0.007595781003285542  0.00011034390184801429  0.9999712359161222  1.0000
  Si  Si8       1.0  0.008940967090941946  0.00694418601101815  0.00011655475904663418  1.0000
  Si  Si9       1.0  0.00915880589571188  0.0034253231229493405  0.9998979750136103  1.0000
  Si  Si10      1.0  0.0044633230628631  0.009907666698396132  0.00011655606811769596  1.0000
  Si  Si11      1.0  0.0024259078671567706  0.006740525847674269  0.9999711761464439  1.0000
  Si  Si12      1.0  0.00223643854999511  0.003425945071395396  0.00016253285750066407  1.0000
  H   H1        1.0  0.0034529755408239256  0.0016666666394903925  7.417884092560939e-05  1.0000
