data_image0
_chemical_formula_structural       HTi4Pd4Ti4Pd4
_chemical_formula_sum              "H1 Ti8 Pd8"
_cell_length_a       4.93762731552124
_cell_length_b       5.399820610917152
_cell_length_c       107.79874420166016
_cell_angle_alpha    62.804643136289044
_cell_angle_beta     90.0
_cell_angle_gamma    90.0

_space_group_name_H-M_alt    "P 1"
_space_group_IT_number       1

loop_
  _space_group_symop_operation_xyz
  'x, y, z'

loop_
  _atom_site_type_symbol
  _atom_site_label
  _atom_site_symmetry_multiplicity
  _atom_site_fract_x
  _atom_site_fract_y
  _atom_site_fract_z
  _atom_site_occupancy
  H   H1        1.0  0.005989447277293817  0.001924373749551745  0.9999773287679026  1.0000
  Ti  Ti1       1.0  0.002980667113292622  0.003874936438235898  0.9991752274222347  1.0000
  Ti  Ti2       1.0  0.002980667113292622  0.008874936577850257  0.9994256860130075  1.0000
  Ti  Ti3       1.0  0.00702237404097845  0.0013749365623375509  0.9990499981224091  1.0000
  Ti  Ti4       1.0  0.00702237404097845  0.00637493670195191  0.9993004564367194  1.0000
  Pd  Pd1       1.0  0.008132351402058242  0.00637493670195191  0.9990499984509681  1.0000
  Pd  Pd2       1.0  0.008132351402058242  0.0013749365623375509  0.9993004563846231  1.0000
  Pd  Pd3       1.0  0.0018706897522128296  0.003874936438235898  0.9994256859609112  1.0000
  Pd  Pd4       1.0  0.0018706897522128296  0.008874936577850257  0.9991752274743311  1.0000
  Ti  Ti5       1.0  0.0030997103636012904  0.0040945707679996045  0.9996694299462625  1.0000
  Ti  Ti6       1.0  0.0033947342419643543  0.008967580013051523  0.9998981369580514  1.0000
  Ti  Ti7       1.0  0.00702237404097845  0.0013749365623375509  0.9995509149232995  1.0000
  Ti  Ti8       1.0  0.007485303835217054  0.005931571524424  0.9998107157354873  1.0000
  Pd  Pd5       1.0  0.008132351402058242  0.00637493670195191  0.9995509149753958  1.0000
  Pd  Pd6       1.0  0.008163659632031237  0.0010324201692227801  0.999804419235857  1.0000
  Pd  Pd7       1.0  0.002319377987398304  0.0037536034155951897  0.9999140680275788  1.0000
  Pd  Pd8       1.0  0.0018363406320331668  0.008966204811609719  0.9996726993576236  1.0000
