data_image0
_chemical_formula_structural       COFe6Sb6As6
_chemical_formula_sum              "C1 O1 Fe6 Sb6 As6"
_cell_length_a       6.384328032138426
_cell_length_b       7.013666784725771
_cell_length_c       105.8947525024414
_cell_angle_alpha    61.17662213590954
_cell_angle_beta     67.51390954397465
_cell_angle_gamma    77.85041145587807

_space_group_name_H-M_alt    "P 1"
_space_group_IT_number       1

loop_
  _space_group_symop_operation_xyz
  'x, y, z'

loop_
  _atom_site_type_symbol
  _atom_site_label
  _atom_site_symmetry_multiplicity
  _atom_site_fract_x
  _atom_site_fract_y
  _atom_site_fract_z
  _atom_site_occupancy
  C   C1        1.0  0.0012154027373665825  0.00584104896755176  0.9997854621317542  1.0000
  O   O1        1.0  0.0012154027373665825  0.00584104896755176  0.9998987824241683  1.0000
  Fe  Fe1       1.0  0.005523312125104542  0.00022628451463535968  0.9993201900763571  1.0000
  Fe  Fe2       1.0  0.008856645405804685  0.0035596179109004555  0.9990377181584439  1.0000
  Fe  Fe3       1.0  0.002179198250811744  0.007094979645993788  0.9995878311793883  1.0000
  Fe  Fe4       1.0  0.008630167598367561  0.0037513799373537146  0.9994474172074846  1.0000
  Fe  Fe5       1.0  0.0018782616280014505  0.007048809872362668  0.999165746499175  1.0000
  Fe  Fe6       1.0  0.0052115949769619245  0.00038214292818967554  0.9988832747481611  1.0000
  Sb  Sb1       1.0  0.006287334614346441  0.006671063410157663  0.9990836596169272  1.0000
  Sb  Sb2       1.0  0.008802179333749379  0.009773715749981328  0.9996404854566031  1.0000
  Sb  Sb3       1.0  0.0029082956747713464  0.003222434381418494  0.9993786131498882  1.0000
  Sb  Sb4       1.0  0.008755319512343741  0.005075150010881402  0.9996336139446347  1.0000
  Sb  Sb5       1.0  0.002011852120433953  0.008808804724562714  0.9993262119518699  1.0000
  Sb  Sb6       1.0  0.005345185312786983  0.002142137742479022  0.9990437402056777  1.0000
  As  As1       1.0  0.007810021001295923  0.007337387941550838  0.9992691600280474  1.0000
  As  As2       1.0  0.0011433547492941496  0.0006707213385741473  0.9989866881218497  1.0000
  As  As3       1.0  0.0046029370828836  0.004348458603582641  0.9995373734549947  1.0000
  As  As4       1.0  0.005399849098181088  0.008258550019006545  0.9995857258307908  1.0000
  As  As5       1.0  0.008585607786791906  0.0019495947556028546  0.9993020222669878  1.0000
  As  As6       1.0  0.0019189411590394773  0.0052829282466447  0.9990195502088492  1.0000
