data_image0
_chemical_formula_structural       COAl12Pt6
_chemical_formula_sum              "C1 O1 Al12 Pt6"
_cell_length_a       7.318311911721683
_cell_length_b       5.975376605987549
_cell_length_c       102.17839050292969
_cell_angle_alpha    90.0
_cell_angle_beta     85.65224684165213
_cell_angle_gamma    114.09484234586733

_space_group_name_H-M_alt    "P 1"
_space_group_IT_number       1

loop_
  _space_group_symop_operation_xyz
  'x, y, z'

loop_
  _atom_site_type_symbol
  _atom_site_label
  _atom_site_symmetry_multiplicity
  _atom_site_fract_x
  _atom_site_fract_y
  _atom_site_fract_z
  _atom_site_occupancy
  C   C1        1.0  0.005825614544204789  0.0002584870191839559  8.299818120777371e-05  1.0000
  O   O1        1.0  0.005825614544204789  0.0002584870191839559  0.00020043949785981304  1.0000
  Al  Al1       1.0  0.0022916668121509003  0.008491513190563425  0.9997160709048791  1.0000
  Al  Al2       1.0  0.003958333635492896  0.004324846583531217  0.9999785073665841  1.0000
  Al  Al3       1.0  0.0006249999888089051  0.0026581799160492843  0.9994536344431743  1.0000
  Al  Al4       1.0  0.0022916668121509003  0.003491513171860219  0.9997160709048791  1.0000
  Al  Al5       1.0  0.003958333635492896  0.009324846602234425  0.9999785073665841  1.0000
  Al  Al6       1.0  0.0006249999888089051  0.007658179778892428  0.9994536344431743  1.0000
  Al  Al7       1.0  0.008125000134293138  0.0014081798142281305  0.9998472891478845  1.0000
  Al  Al8       1.0  0.004791667047163894  0.009741513308069924  0.9993224162214365  1.0000
  Al  Al9       1.0  0.0064583333109511434  0.0055748464212603405  0.9995848526861796  1.0000
  Al  Al10      1.0  0.008125000134293138  0.006408179988791401  0.9998472891478845  1.0000
  Al  Al11      1.0  0.004791667047163894  0.004741513289366716  0.9993224162214365  1.0000
  Al  Al12      1.0  0.0064583333109511434  0.0005748464025571328  0.9995848526861796  1.0000
  Pt  Pt1       1.0  0.0035416667897687107  0.0066165134038108225  0.9995192435639173  1.0000
  Pt  Pt2       1.0  0.005208333333333333  0.0024498463549110544  0.9997816800271414  1.0000
  Pt  Pt3       1.0  0.0018750001063154015  0.0007831798485558818  0.9992568071014529  1.0000
  Pt  Pt4       1.0  0.009375000111910949  0.00953318006488194  0.9996504618069227  1.0000
  Pt  Pt5       1.0  0.001041666694644404  0.005366513356248669  0.9999128982466005  1.0000
  Pt  Pt6       1.0  0.007708333848123699  0.003699846612306237  0.9993880253421795  1.0000
