data_image0
_chemical_formula_structural       V12Sb4H
_chemical_formula_sum              "V12 Sb4 H1"
_cell_length_a       4.950314044952393
_cell_length_b       7.000801086425781
_cell_length_c       98.00320434570312
_cell_angle_alpha    90.0
_cell_angle_beta     90.0
_cell_angle_gamma    90.0

_space_group_name_H-M_alt    "P 1"
_space_group_IT_number       1

loop_
  _space_group_symop_operation_xyz
  'x, y, z'

loop_
  _atom_site_type_symbol
  _atom_site_label
  _atom_site_symmetry_multiplicity
  _atom_site_fract_x
  _atom_site_fract_y
  _atom_site_fract_z
  _atom_site_occupancy
  V   V1        1.0  2.0000000010572664e-10  0.006254490483215073  0.9993749352763378  1.0000
  V   V2        1.0  0.009999999187260952  0.0013575910796087983  0.99973530381922  1.0000
  V   V3        1.0  0.009999999187260952  0.0038273515266646794  0.999907958840918  1.0000
  V   V4        1.0  2.0000000010572664e-10  0.008754490440645198  0.9995535213744706  1.0000
  V   V5        1.0  0.004999999969898554  0.006254490483215073  0.9995535213744706  1.0000
  V   V6        1.0  0.0050000007224347085  0.0011816278380739373  0.9999079630982535  1.0000
  V   V7        1.0  0.004999999969898554  0.008754490440645198  0.9993749352763378  1.0000
  V   V8        1.0  0.005000000346166631  0.0036516579386788105  0.9997352840530199  1.0000
  V   V9        1.0  0.007499999578579753  0.0025044905470698845  0.9994642283254042  1.0000
  V   V10       1.0  0.007500012371694391  0.007504530371187509  0.999816433427613  1.0000
  V   V11       1.0  0.0025000001730833155  0.0025044905470698845  0.9994642283254042  1.0000
  V   V12       1.0  0.002499986063030405  0.007504530903310941  0.999816433427613  1.0000
  Sb  Sb1       1.0  0.005000000346166631  0.005013469023162371  1.4316810836749062e-06  1.0000
  Sb  Sb2       1.0  0.004999999969898554  4.49064991936691e-06  0.9996428144235371  1.0000
  Sb  Sb3       1.0  2.0000000010572664e-10  0.00500449050450001  0.9996428144235371  1.0000
  Sb  Sb4       1.0  0.009999998434724797  0.009995509772204174  1.4401957545208912e-06  1.0000
  H   H1        1.0  0.004999999969898554  0.008730229869149059  0.0  1.0000
