data_image0
_chemical_formula_structural       CORh8Si4Zn4Rh8Si4Zn4Rh8Si4Zn4Rh8Si4Zn4
_chemical_formula_sum              "C1 O1 Rh32 Si16 Zn16"
_cell_length_a       8.472630500793457
_cell_length_b       8.472630500793457
_cell_length_c       105.94632720947266
_cell_angle_alpha    90.0
_cell_angle_beta     90.0
_cell_angle_gamma    90.0

_space_group_name_H-M_alt    "P 1"
_space_group_IT_number       1

loop_
  _space_group_symop_operation_xyz
  'x, y, z'

loop_
  _atom_site_type_symbol
  _atom_site_label
  _atom_site_symmetry_multiplicity
  _atom_site_fract_x
  _atom_site_fract_y
  _atom_site_fract_z
  _atom_site_occupancy
  C   C1        1.0  0.004999999929650367  0.0024999999648251834  0.00014747246031551143  1.0000
  O   O1        1.0  0.004999999929650367  0.0024999999648251834  0.0002607375883738831  1.0000
  Rh  Rh1       1.0  0.0024999999648251834  0.0024999999648251834  0.999284312993943  1.0000
  Rh  Rh2       1.0  0.0  0.0  0.999284312993943  1.0000
  Rh  Rh3       1.0  0.0  0.0  0.999001572962314  1.0000
  Rh  Rh4       1.0  0.0024999999648251834  0.0024999999648251834  0.999001572962314  1.0000
  Rh  Rh5       1.0  0.0024999993052973726  0.002500000844195598  0.9998530113695242  1.0000
  Rh  Rh6       1.0  1.5999999762574066e-09  0.009999999859300734  0.9998530321854591  1.0000
  Rh  Rh7       1.0  0.0  0.0  0.9995670533068685  1.0000
  Rh  Rh8       1.0  0.0024999999648251834  0.0024999999648251834  0.9995670533068685  1.0000
  Si  Si1       1.0  0.0  0.0024999999648251834  0.999425683291054  1.0000
  Si  Si2       1.0  0.0024999999648251834  0.0  0.9991429429781284  1.0000
  Si  Si3       1.0  0.009999999859300734  0.0024999999648251834  0.9999839886078641  1.0000
  Si  Si4       1.0  0.002500000184667787  0.009999999859300734  0.9997082792989168  1.0000
  Zn  Zn1       1.0  0.0024999999648251834  0.0  0.999425683291054  1.0000
  Zn  Zn2       1.0  0.0  0.0024999999648251834  0.9991429429781284  1.0000
  Zn  Zn3       1.0  0.0025000019434086164  1.0999999705733267e-09  0.0  1.0000
  Zn  Zn4       1.0  0.009999999859300734  0.0024999997449825797  0.9997098179903255  1.0000
  Rh  Rh9       1.0  0.0024999999648251834  0.00749999989447555  0.999284312993943  1.0000
  Rh  Rh10      1.0  0.0  0.004999999929650367  0.999284312993943  1.0000
  Rh  Rh11      1.0  0.0  0.004999999929650367  0.999001572962314  1.0000
  Rh  Rh12      1.0  0.0024999999648251834  0.00749999989447555  0.999001572962314  1.0000
  Rh  Rh13      1.0  0.0024999993052973726  0.0075000007738459645  0.9998530113695242  1.0000
  Rh  Rh14      1.0  1.5999999762574066e-09  0.004999999929650367  0.9998530321854591  1.0000
  Rh  Rh15      1.0  0.0  0.004999999929650367  0.9995670533068685  1.0000
  Rh  Rh16      1.0  0.0024999999648251834  0.00749999989447555  0.9995670533068685  1.0000
  Si  Si5       1.0  0.0  0.00749999989447555  0.999425683291054  1.0000
  Si  Si6       1.0  0.0024999999648251834  0.004999999929650367  0.9991429429781284  1.0000
  Si  Si7       1.0  0.009999999859300734  0.00749999989447555  0.9999839886078641  1.0000
  Si  Si8       1.0  0.002500000184667787  0.004999999929650367  0.9997082792989168  1.0000
  Zn  Zn5       1.0  0.0024999999648251834  0.004999999929650367  0.999425683291054  1.0000
  Zn  Zn6       1.0  0.0  0.00749999989447555  0.9991429429781284  1.0000
  Zn  Zn7       1.0  0.0025000019434086164  0.0050000012487059885  0.0  1.0000
  Zn  Zn8       1.0  0.009999999859300734  0.00749999989447555  0.9997098179903255  1.0000
  Rh  Rh17      1.0  0.00749999989447555  0.0024999999648251834  0.999284312993943  1.0000
  Rh  Rh18      1.0  0.004999999929650367  0.0  0.999284312993943  1.0000
  Rh  Rh19      1.0  0.004999999929650367  0.0  0.999001572962314  1.0000
  Rh  Rh20      1.0  0.00749999989447555  0.0024999999648251834  0.999001572962314  1.0000
  Rh  Rh21      1.0  0.007499999015105135  0.002500000844195598  0.9998530113695242  1.0000
  Rh  Rh22      1.0  0.005000001688391196  0.009999999859300734  0.9998530321854591  1.0000
  Rh  Rh23      1.0  0.004999999929650367  0.0  0.9995670533068685  1.0000
  Rh  Rh24      1.0  0.00749999989447555  0.0024999999648251834  0.9995670533068685  1.0000
  Si  Si9       1.0  0.004999999929650367  0.0024999999648251834  0.999425683291054  1.0000
  Si  Si10      1.0  0.00749999989447555  0.0  0.9991429429781284  1.0000
  Si  Si11      1.0  0.004999999929650367  0.0024999999648251834  0.9999839886078641  1.0000
  Si  Si12      1.0  0.00749999989447555  0.009999999859300734  0.9997082792989168  1.0000
  Zn  Zn9       1.0  0.00749999989447555  0.0  0.999425683291054  1.0000
  Zn  Zn10      1.0  0.004999999929650367  0.0024999999648251834  0.9991429429781284  1.0000
  Zn  Zn11      1.0  0.0075000016532163795  1.0999999705733267e-09  0.0  1.0000
  Zn  Zn12      1.0  0.004999999929650367  0.0024999997449825797  0.9997098179903255  1.0000
  Rh  Rh25      1.0  0.00749999989447555  0.00749999989447555  0.999284312993943  1.0000
  Rh  Rh26      1.0  0.004999999929650367  0.004999999929650367  0.999284312993943  1.0000
  Rh  Rh27      1.0  0.004999999929650367  0.004999999929650367  0.999001572962314  1.0000
  Rh  Rh28      1.0  0.00749999989447555  0.00749999989447555  0.999001572962314  1.0000
  Rh  Rh29      1.0  0.007499999015105135  0.0075000007738459645  0.9998530113695242  1.0000
  Rh  Rh30      1.0  0.005000001688391196  0.004999999929650367  0.9998530321854591  1.0000
  Rh  Rh31      1.0  0.004999999929650367  0.004999999929650367  0.9995670533068685  1.0000
  Rh  Rh32      1.0  0.00749999989447555  0.00749999989447555  0.9995670533068685  1.0000
  Si  Si13      1.0  0.004999999929650367  0.00749999989447555  0.999425683291054  1.0000
  Si  Si14      1.0  0.00749999989447555  0.004999999929650367  0.9991429429781284  1.0000
  Si  Si15      1.0  0.004999999929650367  0.00749999989447555  0.9999839886078641  1.0000
  Si  Si16      1.0  0.00749999989447555  0.004999999929650367  0.9997082792989168  1.0000
  Zn  Zn13      1.0  0.00749999989447555  0.004999999929650367  0.999425683291054  1.0000
  Zn  Zn14      1.0  0.004999999929650367  0.00749999989447555  0.9991429429781284  1.0000
  Zn  Zn15      1.0  0.0075000016532163795  0.0050000012487059885  0.0  1.0000
  Zn  Zn16      1.0  0.004999999929650367  0.00749999989447555  0.9997098179903255  1.0000
