data_image0
_chemical_formula_structural       HFe12Re4Fe12Re4
_chemical_formula_sum              "H1 Fe24 Re8"
_cell_length_a       5.094475269317627
_cell_length_b       10.967939209417656
_cell_length_c       102.4774169921875
_cell_angle_alpha    68.2757225318092
_cell_angle_beta     90.0
_cell_angle_gamma    62.32291385826797

_space_group_name_H-M_alt    "P 1"
_space_group_IT_number       1

loop_
  _space_group_symop_operation_xyz
  'x, y, z'

loop_
  _atom_site_type_symbol
  _atom_site_label
  _atom_site_symmetry_multiplicity
  _atom_site_fract_x
  _atom_site_fract_y
  _atom_site_fract_z
  _atom_site_occupancy
  H   H1        1.0  0.008405558716270712  0.004217641974039718  0.9998416249512796  1.0000
  Fe  Fe1       1.0  0.0033032778098050536  0.004204684354066173  0.9992465700283776  1.0000
  Fe  Fe2       1.0  0.0033032787053942645  0.00920468421896783  0.9990484933393701  1.0000
  Fe  Fe3       1.0  0.00842601702015666  0.0016433149431387278  0.9993480395455675  1.0000
  Fe  Fe4       1.0  0.008426016242172273  0.0066433150191315465  0.9991499628481977  1.0000
  Fe  Fe5       1.0  0.008426017408653376  0.004204684354066173  0.9992465700283776  1.0000
  Fe  Fe6       1.0  0.008426016841760153  0.00920468421896783  0.9990484933393701  1.0000
  Fe  Fe7       1.0  0.0068002636083225754  0.0008304381251473247  0.9991821649160972  1.0000
  Fe  Fe8       1.0  0.00680026377267057  0.00583043799004898  0.9993802416856051  1.0000
  Fe  Fe9       1.0  0.0016775241868798056  0.003391807747165934  0.9990806953905449  1.0000
  Fe  Fe10      1.0  0.0016775243512277993  0.008391807612067589  0.9992787721600527  1.0000
  Fe  Fe11      1.0  0.0016775243750948624  0.0008304381251473247  0.9991821649160972  1.0000
  Fe  Fe12      1.0  0.0016775241738222469  0.00583043799004898  0.9993802416856051  1.0000
  Re  Re1       1.0  0.006718437272144255  0.003350894691151134  0.9990823161751232  1.0000
  Re  Re2       1.0  0.006718436494159868  0.008350894767143952  0.9992803929362686  1.0000
  Re  Re3       1.0  0.003385103934892212  0.0016842279991535277  0.9993464187609892  1.0000
  Re  Re4       1.0  0.003385104099240205  0.0066842278640551825  0.9991483420719818  1.0000
  Fe  Fe13      1.0  0.003409340893923668  0.004135957715271916  0.9996440769427699  1.0000
  Fe  Fe14      1.0  0.0033032787053942645  0.00920468421896783  0.9994446462162485  1.0000
  Fe  Fe15      1.0  0.008296099396752356  0.0017730680372690939  0.9997325547441  1.0000
  Fe  Fe16      1.0  0.008454893945392125  0.0066139678590500595  0.999548523607321  1.0000
  Fe  Fe17      1.0  0.008455864297228156  0.004135985157123157  0.9996440578249084  1.0000
  Fe  Fe18      1.0  0.008426016841760153  0.00920468421896783  0.9994446462162485  1.0000
  Fe  Fe19      1.0  0.00682349039050812  0.0007953155108354817  0.9995841633624473  1.0000
  Fe  Fe20      1.0  0.006714400992777811  0.0059401509334917335  0.9997646789078196  1.0000
  Fe  Fe21      1.0  0.0016775241868798056  0.003391807747165934  0.9994768488490601  1.0000
  Fe  Fe22      1.0  0.001699083664482412  0.008369968964667891  0.99967216193151  1.0000
  Fe  Fe23      1.0  0.0017239690616239148  0.0007956232817517045  0.9995841081288692  1.0000
  Fe  Fe24      1.0  0.0015441353974050347  0.005939561989145874  0.9997646621061049  1.0000
  Re  Re5       1.0  0.006718437272144255  0.003350894691151134  0.9994784696336384  1.0000
  Re  Re6       1.0  0.006751028895271361  0.008317718835540893  0.9996691791585315  1.0000
  Re  Re7       1.0  0.003299606724093196  0.001769390301474928  0.9997245697369471  1.0000
  Re  Re8       1.0  0.00340614102322936  0.006664026017536413  0.9995492131578588  1.0000
