data_image0
_chemical_formula_structural       HGe4Se4Ge4Se4Ge4Se4Ge4Se4
_chemical_formula_sum              "H1 Ge16 Se16"
_cell_length_a       11.277473449707031
_cell_length_b       7.8500542640686035
_cell_length_c       102.23568725585938
_cell_angle_alpha    90.0
_cell_angle_beta     90.0
_cell_angle_gamma    90.0

_space_group_name_H-M_alt    "P 1"
_space_group_IT_number       1

loop_
  _space_group_symop_operation_xyz
  'x, y, z'

loop_
  _atom_site_type_symbol
  _atom_site_label
  _atom_site_symmetry_multiplicity
  _atom_site_fract_x
  _atom_site_fract_y
  _atom_site_fract_z
  _atom_site_occupancy
  H   H1        1.0  0.009671768934929957  0.003749997693657873  0.9999836914019649  1.0000
  Ge  Ge1       1.0  0.003756204764315254  0.0037499979309358698  0.9997427779676791  1.0000
  Ge  Ge2       1.0  0.0049173822183019985  0.0012499962652443332  8.385405021971254e-05  1.0000
  Ge  Ge3       1.0  0.00032823122032524704  0.001249997688912313  0.9998602724002398  1.0000
  Ge  Ge4       1.0  0.00835884438395919  0.003749997693657873  0.9998689965936047  1.0000
  Se  Se1       1.0  0.006178583002587336  0.0037500036256077887  0.0  1.0000
  Se  Se2       1.0  0.0032388448752791476  0.0012499984007463029  0.9999077873050146  1.0000
  Se  Se3       1.0  0.008527943727459323  0.0012499978075513113  0.9996918798435714  1.0000
  Se  Se4       1.0  0.0014846736383397174  0.0037499979309358698  0.999687979492488  1.0000
  Ge  Ge5       1.0  0.003756204764315254  0.0037499979309358698  0.9992923387226166  1.0000
  Ge  Ge6       1.0  0.0062564127666488965  0.0012499978075513113  0.9996370807853683  1.0000
  Ge  Ge7       1.0  0.0012564127303125725  0.0012499978075513113  0.9995175583451478  1.0000
  Ge  Ge8       1.0  0.008756204552903912  0.0037499979309358698  0.999411861454343  1.0000
  Se  Se5       1.0  0.006484673592093486  0.0037499979309358698  0.9994666602210401  1.0000
  Se  Se6       1.0  0.0035279436085404433  0.0012499978075513113  0.9994627595784507  1.0000
  Se  Se7       1.0  0.008527943727459323  0.0012499978075513113  0.9992414403070028  1.0000
  Se  Se8       1.0  0.0014846736383397174  0.0037499979309358698  0.9992375399559195  1.0000
  Ge  Ge9       1.0  0.003756204764315254  0.008749998177704986  0.9997427779676791  1.0000
  Ge  Ge10      1.0  0.0049173822183019985  0.006249996393374452  8.385405021971254e-05  1.0000
  Ge  Ge11      1.0  0.00032823122032524704  0.006249997817042431  0.9998602724002398  1.0000
  Ge  Ge12      1.0  0.00835884438395919  0.008749997228593  0.9998689965936047  1.0000
  Se  Se9       1.0  0.006178583002587336  0.008750003872376906  0.0  1.0000
  Se  Se10      1.0  0.0032388448752791476  0.006249998291598425  0.9999077873050146  1.0000
  Se  Se11      1.0  0.008527943727459323  0.006249997817042431  0.9996918798435714  1.0000
  Se  Se12      1.0  0.0014846736383397174  0.008749998177704986  0.999687979492488  1.0000
  Ge  Ge13      1.0  0.003756204764315254  0.008749998177704986  0.9992923387226166  1.0000
  Ge  Ge14      1.0  0.0062564127666488965  0.006249997817042431  0.9996370807853683  1.0000
  Ge  Ge15      1.0  0.0012564127303125725  0.006249997817042431  0.9995175583451478  1.0000
  Ge  Ge16      1.0  0.008756204552903912  0.008749998177704986  0.999411861454343  1.0000
  Se  Se13      1.0  0.006484673592093486  0.008749998177704986  0.9994666602210401  1.0000
  Se  Se14      1.0  0.0035279436085404433  0.006249997817042431  0.9994627595784507  1.0000
  Se  Se15      1.0  0.008527943727459323  0.006249997817042431  0.9992414403070028  1.0000
  Se  Se16      1.0  0.0014846736383397174  0.008749998177704986  0.9992375399559195  1.0000
