data_image0
_chemical_formula_structural       HMn6Rh6Sb6
_chemical_formula_sum              "H1 Mn6 Rh6 Sb6"
_cell_length_a       7.368752308791255
_cell_length_b       6.016561031341553
_cell_length_c       102.4001693725586
_cell_angle_alpha    90.0
_cell_angle_beta     85.65224684367034
_cell_angle_gamma    114.09484240522487

_space_group_name_H-M_alt    "P 1"
_space_group_IT_number       1

loop_
  _space_group_symop_operation_xyz
  'x, y, z'

loop_
  _atom_site_type_symbol
  _atom_site_label
  _atom_site_symmetry_multiplicity
  _atom_site_fract_x
  _atom_site_fract_y
  _atom_site_fract_z
  _atom_site_occupancy
  H   H1        1.0  0.009504729437749077  0.0015129491590508849  4.2921239530554596e-05  1.0000
  Mn  Mn1       1.0  0.005127310369018849  0.008053025430798687  0.9998359327113364  1.0000
  Mn  Mn2       1.0  0.0018166554577035863  0.006145833383632167  0.999314349541031  1.0000
  Mn  Mn3       1.0  0.0034833219854391293  0.001979166621185099  0.9995780223881278  1.0000
  Mn  Mn4       1.0  0.0011504093077628933  0.001338669274289355  0.9999453926846492  1.0000
  Mn  Mn5       1.0  0.0076499889299680435  0.009062500119764396  0.9994461859634425  1.0000
  Mn  Mn6       1.0  0.00931665559663471  0.004895833330037156  0.9997098591008191  1.0000
  Rh  Rh1       1.0  0.0023355586209318747  0.009046247207560506  0.999771171391773  1.0000
  Rh  Rh2       1.0  0.003521279635675912  0.005151590773872296  0.9999957921978898  1.0000
  Rh  Rh3       1.0  0.0005666555271691483  0.003020833269763501  0.9995121043209251  1.0000
  Rh  Rh4       1.0  0.008288196834059777  0.0019018025871946332  0.9998986424552622  1.0000
  Rh  Rh5       1.0  0.004733322263301377  0.00010416680500624324  0.9993802678973768  1.0000
  Rh  Rh6       1.0  0.006399988929968044  0.005937499971162949  0.9996439404526777  1.0000
  Sb  Sb1       1.0  0.0034833219854391293  0.006979166647499938  0.9995780223881278  1.0000
  Sb  Sb2       1.0  0.005282210792080792  0.0029312550218089533  0.9998527909317253  1.0000
  Sb  Sb3       1.0  0.0018166554577035863  0.0011458332605715942  0.999314349541031  1.0000
  Sb  Sb4       1.0  0.00931665559663471  0.00989583345309773  0.9997098591008191  1.0000
  Sb  Sb5       1.0  0.0004952701454575525  0.006372893817567253  0.9999972981526423  1.0000
  Sb  Sb6       1.0  0.0076499889299680435  0.004062500035402116  0.9994461859634425  1.0000
