data_image0
_chemical_formula_structural       COAu8Rh8Zn16Au8Rh8Zn16
_chemical_formula_sum              "C1 O1 Au16 Rh16 Zn32"
_cell_length_a       8.831598281860352
_cell_length_b       10.81645393371582
_cell_length_c       100.59355163574219
_cell_angle_alpha    90.0
_cell_angle_beta     90.0
_cell_angle_gamma    90.0

_space_group_name_H-M_alt    "P 1"
_space_group_IT_number       1

loop_
  _space_group_symop_operation_xyz
  'x, y, z'

loop_
  _atom_site_type_symbol
  _atom_site_label
  _atom_site_symmetry_multiplicity
  _atom_site_fract_x
  _atom_site_fract_y
  _atom_site_fract_z
  _atom_site_occupancy
  C   C1        1.0  9.99999931330181e-11  0.003780110337696398  0.00014816910666198054  1.0000
  O   O1        1.0  9.99999931330181e-11  0.003780110337696398  0.0002674612891484701  1.0000
  Au  Au1       1.0  0.0024999998818921276  0.0053858376655833064  0.9991160900014926  1.0000
  Au  Au2       1.0  0.0024999998818921276  0.0020525043827633776  0.9993695317468952  1.0000
  Au  Au3       1.0  0.0024999998818921276  0.00871917129281281  0.9996229737885626  1.0000
  Au  Au4       1.0  0.0024999998818921276  0.005330760719635044  0.9998899601653334  1.0000
  Au  Au5       1.0  0.0  0.00871917129281281  0.9992428110223263  1.0000
  Au  Au6       1.0  0.0  0.0053858376655833064  0.9994962527677289  1.0000
  Au  Au7       1.0  9.99999931330181e-11  0.0021122510059294435  0.9997467469752366  1.0000
  Au  Au8       1.0  9.99999931330181e-11  0.00885185852553996  0.9999874081560346  1.0000
  Rh  Rh1       1.0  9.99999931330181e-11  0.003780110337696398  0.9999759859652614  1.0000
  Rh  Rh2       1.0  0.0  0.0037191711963781293  0.9992428110223263  1.0000
  Rh  Rh3       1.0  0.0  0.00038583765525101934  0.9994962527677289  1.0000
  Rh  Rh4       1.0  9.99999931330181e-11  0.007087974532471441  0.9997472115183483  1.0000
  Rh  Rh5       1.0  0.0024999998818921276  0.007052504479198058  0.9993695317468952  1.0000
  Rh  Rh6       1.0  0.0024999998818921276  0.0037191711963781293  0.9996229737885626  1.0000
  Rh  Rh7       1.0  0.0024999998818921276  0.000385647067602651  0.9998719377886899  1.0000
  Rh  Rh8       1.0  0.0024999998818921276  0.00038583765525101934  0.9991160900014926  1.0000
  Zn  Zn1       1.0  0.0024999998818921276  0.004552504603185505  0.9993695317468952  1.0000
  Zn  Zn2       1.0  0.0024999998818921276  0.0012191710620583951  0.9996229737885626  1.0000
  Zn  Zn3       1.0  0.0024999998818921276  0.00785907175150244  0.9998893297139674  1.0000
  Zn  Zn4       1.0  0.0024999998818921276  0.007885837886005434  0.9991160900014926  1.0000
  Zn  Zn5       1.0  0.0024999998818921276  0.006219171072390682  0.9996229737885626  1.0000
  Zn  Zn6       1.0  0.0024999998818921276  0.002795120135404872  0.9999075002229807  1.0000
  Zn  Zn7       1.0  0.0024999998818921276  0.0028858377895707534  0.9991160900014926  1.0000
  Zn  Zn8       1.0  0.0024999998818921276  0.009552504699620186  0.9993695317468952  1.0000
  Zn  Zn9       1.0  0.0  0.004608582747767256  0.999744010674101  1.0000
  Zn  Zn10      1.0  0.00999999952756851  0.001309365816387574  0.0  1.0000
  Zn  Zn11      1.0  0.0  0.0012191710620583951  0.9992428110223263  1.0000
  Zn  Zn12      1.0  0.0  0.007885837886005434  0.9994962527677289  1.0000
  Zn  Zn13      1.0  0.0  0.006219171072390682  0.9992428110223263  1.0000
  Zn  Zn14      1.0  0.0  0.0028858377895707534  0.9994962527677289  1.0000
  Zn  Zn15      1.0  0.0  0.009614353082215513  0.9997427811754314  1.0000
  Zn  Zn16      1.0  0.0  0.006226844517713739  0.9999976121061983  1.0000
  Au  Au9       1.0  0.007499999223862552  0.0053858376655833064  0.9991160900014926  1.0000
  Au  Au10      1.0  0.007499999223862552  0.0020525043827633776  0.9993695317468952  1.0000
  Au  Au11      1.0  0.007499999223862552  0.00871917129281281  0.9996229737885626  1.0000
  Au  Au12      1.0  0.007500000067490213  0.005330760719635044  0.9998899601653334  1.0000
  Au  Au13      1.0  0.004999999763784255  0.00871917129281281  0.9992428110223263  1.0000
  Au  Au14      1.0  0.004999999763784255  0.0053858376655833064  0.9994962527677289  1.0000
  Au  Au15      1.0  0.004999999763784255  0.0021122510059294435  0.9997467469752366  1.0000
  Au  Au16      1.0  0.004999999763784255  0.00885185852553996  0.9999874081560346  1.0000
  Rh  Rh9       1.0  0.004999999763784255  0.003780110337696398  0.9999759859652614  1.0000
  Rh  Rh10      1.0  0.004999999763784255  0.0037191711963781293  0.9992428110223263  1.0000
  Rh  Rh11      1.0  0.004999999763784255  0.00038583765525101934  0.9994962527677289  1.0000
  Rh  Rh12      1.0  0.004999999763784255  0.007087974532471441  0.9997472115183483  1.0000
  Rh  Rh13      1.0  0.007499999223862552  0.007052504479198058  0.9993695317468952  1.0000
  Rh  Rh14      1.0  0.007499999223862552  0.0037191711963781293  0.9996229737885626  1.0000
  Rh  Rh15      1.0  0.007499999223862552  0.000385647067602651  0.9998719377886899  1.0000
  Rh  Rh16      1.0  0.007499999223862552  0.00038583765525101934  0.9991160900014926  1.0000
  Zn  Zn17      1.0  0.007499999223862552  0.004552504603185505  0.9993695317468952  1.0000
  Zn  Zn18      1.0  0.007499999223862552  0.0012191710620583951  0.9996229737885626  1.0000
  Zn  Zn19      1.0  0.007500000067490213  0.00785907175150244  0.9998893297139674  1.0000
  Zn  Zn20      1.0  0.007499999223862552  0.007885837886005434  0.9991160900014926  1.0000
  Zn  Zn21      1.0  0.007499999223862552  0.006219171072390682  0.9996229737885626  1.0000
  Zn  Zn22      1.0  0.007500000067490213  0.002795120135404872  0.9999075002229807  1.0000
  Zn  Zn23      1.0  0.007499999223862552  0.0028858377895707534  0.9991160900014926  1.0000
  Zn  Zn24      1.0  0.007499999223862552  0.009552504699620186  0.9993695317468952  1.0000
  Zn  Zn25      1.0  0.004999999763784255  0.004608582747767256  0.999744010674101  1.0000
  Zn  Zn26      1.0  0.004999999763784255  0.001309365816387574  0.0  1.0000
  Zn  Zn27      1.0  0.004999999763784255  0.0012191710620583951  0.9992428110223263  1.0000
  Zn  Zn28      1.0  0.004999999763784255  0.007885837886005434  0.9994962527677289  1.0000
  Zn  Zn29      1.0  0.004999999763784255  0.006219171072390682  0.9992428110223263  1.0000
  Zn  Zn30      1.0  0.004999999763784255  0.0028858377895707534  0.9994962527677289  1.0000
  Zn  Zn31      1.0  0.004999999763784255  0.009614353082215513  0.9997427811754314  1.0000
  Zn  Zn32      1.0  0.004999999763784255  0.006226844517713739  0.9999976121061983  1.0000
