data_image0
_chemical_formula_structural       HAl2Au4Al2Au4Al2Au4Al2Au4
_chemical_formula_sum              "H1 Al8 Au16"
_cell_length_a       6.739741325378418
_cell_length_b       6.739741325378418
_cell_length_c       33.669525146484375
_cell_angle_alpha    90.0
_cell_angle_beta     90.0
_cell_angle_gamma    90.0

_space_group_name_H-M_alt    "P 1"
_space_group_IT_number       1

loop_
  _space_group_symop_operation_xyz
  'x, y, z'

loop_
  _atom_site_type_symbol
  _atom_site_label
  _atom_site_symmetry_multiplicity
  _atom_site_fract_x
  _atom_site_fract_y
  _atom_site_fract_z
  _atom_site_occupancy
  H   H1        1.0  0.002500000088437585  0.0037500001326563775  0.0001326903609783256  1.0000
  Al  Al1       1.0  0.0012499999060350657  0.0  0.9977677940448529  1.0000
  Al  Al2       1.0  0.0037500001326563775  0.002500000088437585  0.9991165832416468  1.0000
  Au  Au1       1.0  0.0037500001326563775  0.0025000003648050387  0.0  1.0000
  Au  Au2       1.0  0.0012500000442187925  0.01000000035375034  0.9995335313127672  1.0000
  Au  Au3       1.0  0.0012499999060350657  0.0  0.9986997497964597  1.0000
  Au  Au4       1.0  0.0037500001326563775  0.002500000088437585  0.99818462749004  1.0000
  Al  Al3       1.0  0.0012499999060350657  0.00500000017687517  0.9977677940448529  1.0000
  Al  Al4       1.0  0.0037500001326563775  0.007500000265312755  0.9991165832416468  1.0000
  Au  Au5       1.0  0.0037500001326563775  0.007500000265312755  0.0  1.0000
  Au  Au6       1.0  0.0012500000442187925  0.00500000017687517  0.9995335313127672  1.0000
  Au  Au7       1.0  0.0012499999060350657  0.00500000017687517  0.9986997497964597  1.0000
  Au  Au8       1.0  0.0037500001326563775  0.007500000265312755  0.99818462749004  1.0000
  Al  Al5       1.0  0.006250000221093963  0.0  0.9977677940448529  1.0000
  Al  Al6       1.0  0.008750000309531547  0.002500000088437585  0.9991165832416468  1.0000
  Au  Au9       1.0  0.008750000309531547  0.0025000003648050387  0.0  1.0000
  Au  Au10      1.0  0.006250000221093963  0.01000000035375034  0.9995335313127672  1.0000
  Au  Au11      1.0  0.006250000221093963  0.0  0.9986997497964597  1.0000
  Au  Au12      1.0  0.008750000309531547  0.002500000088437585  0.99818462749004  1.0000
  Al  Al7       1.0  0.006250000221093963  0.00500000017687517  0.9977677940448529  1.0000
  Al  Al8       1.0  0.008750000309531547  0.007500000265312755  0.9991165832416468  1.0000
  Au  Au13      1.0  0.008750000309531547  0.007500000265312755  0.0  1.0000
  Au  Au14      1.0  0.006250000221093963  0.00500000017687517  0.9995335313127672  1.0000
  Au  Au15      1.0  0.006250000221093963  0.00500000017687517  0.9986997497964597  1.0000
  Au  Au16      1.0  0.008750000309531547  0.007500000265312755  0.99818462749004  1.0000
