data_image0
_chemical_formula_structural       COCa5Ga10Ca5Ga10
_chemical_formula_sum              "C1 O1 Ca10 Ga20"
_cell_length_a       11.372560232288938
_cell_length_b       6.142458546860614
_cell_length_c       106.85475158691406
_cell_angle_alpha    74.6066955403193
_cell_angle_beta     82.40050531692378
_cell_angle_gamma    58.06272085189178

_space_group_name_H-M_alt    "P 1"
_space_group_IT_number       1

loop_
  _space_group_symop_operation_xyz
  'x, y, z'

loop_
  _atom_site_type_symbol
  _atom_site_label
  _atom_site_symmetry_multiplicity
  _atom_site_fract_x
  _atom_site_fract_y
  _atom_site_fract_z
  _atom_site_occupancy
  C   C1        1.0  0.0020206925009108702  0.006416572724631583  5.705497046649817e-05  1.0000
  O   O1        1.0  0.0020206925009108702  0.006416572724631583  0.00016935717640943583  1.0000
  Ca  Ca1       1.0  0.0044999997062894915  0.008166666605924904  0.9988090343972252  1.0000
  Ca  Ca2       1.0  0.00850000013249912  0.006166666905714895  0.998924002826032  1.0000
  Ca  Ca3       1.0  0.0004999999860256778  0.00016666664551114334  0.9992689077374252  1.0000
  Ca  Ca4       1.0  0.002499999991510603  0.004166666470725495  0.9990389712070968  1.0000
  Ca  Ca5       1.0  0.006499999806651975  0.002166666586820639  0.9991539393684025  1.0000
  Ga  Ga1       1.0  0.005500000060258508  0.00850000001175647  0.9990772937818065  1.0000
  Ga  Ga2       1.0  0.009500000685962549  0.00649999957676707  0.9991922624979223  1.0000
  Ga  Ga3       1.0  0.0014999999198852673  0.000499999925052502  0.9989623255576928  1.0000
  Ga  Ga4       1.0  0.0035000000150086892  0.0044999998765570615  0.9993072308752345  1.0000
  Ga  Ga5       1.0  0.00750000016062099  0.002499999992652206  0.9988473571808301  1.0000
  Ga  Ga6       1.0  0.0035000000132623357  0.007833333200093337  0.9991156165754947  1.0000
  Ga  Ga7       1.0  0.00749999987827731  0.005833333132493633  0.9992305852967114  1.0000
  Ga  Ga8       1.0  0.009500000353745265  0.009833332900303344  0.9990006482028339  1.0000
  Ga  Ga9       1.0  0.0015000000335007758  0.0038333334322836247  0.9987707115324315  1.0000
  Ga  Ga10      1.0  0.005500000063751215  0.0018333333646839206  0.9988856799724173  1.0000
  Ca  Ca6       1.0  0.0044999997062894915  0.008166666605924904  0.999383876248284  1.0000
  Ca  Ca7       1.0  0.00850000013249912  0.006166666905714895  0.9994988443981857  1.0000
  Ca  Ca8       1.0  0.0004999999860256778  0.00016666664551114334  0.9998437498673889  1.0000
  Ca  Ca9       1.0  0.002499999991510603  0.004166666470725495  0.9996138127792505  1.0000
  Ca  Ca10      1.0  0.006499999806651975  0.002166666586820639  0.9997287814983661  1.0000
  Ga  Ga11      1.0  0.005500000060258508  0.00850000001175647  0.9996521359117702  1.0000
  Ga  Ga12      1.0  0.009500000685962549  0.00649999957676707  0.999767104070076  1.0000
  Ga  Ga13      1.0  0.0014999999198852673  0.000499999925052502  0.9995371674087515  1.0000
  Ga  Ga14      1.0  0.0035000000150086892  0.0044999998765570615  0.9998820724473882  1.0000
  Ga  Ga15      1.0  0.00750000016062099  0.002499999992652206  0.9994221990318888  1.0000
  Ga  Ga16      1.0  0.0035000000132623357  0.007833333200093337  0.9996904587054585  1.0000
  Ga  Ga17      1.0  0.00749999987827731  0.005833333132493633  0.9998054268688651  1.0000
  Ga  Ga18      1.0  0.009500000353745265  0.009833332900303344  0.9995754903327976  1.0000
  Ga  Ga19      1.0  0.0015000000335007758  0.0038333334322836247  0.9993455536623951  1.0000
  Ga  Ga20      1.0  0.005500000063751215  0.0018333333646839206  0.999460521823476  1.0000
