data_image0
_chemical_formula_structural       COIn6Sb6In6Sb6
_chemical_formula_sum              "C1 O1 In12 Sb12"
_cell_length_a       12.541428459791067
_cell_length_b       9.137067279199329
_cell_length_c       103.18150329589844
_cell_angle_alpha    105.03415108543108
_cell_angle_beta     79.10660546891908
_cell_angle_gamma    66.91053571764674

_space_group_name_H-M_alt    "P 1"
_space_group_IT_number       1

loop_
  _space_group_symop_operation_xyz
  'x, y, z'

loop_
  _atom_site_type_symbol
  _atom_site_label
  _atom_site_symmetry_multiplicity
  _atom_site_fract_x
  _atom_site_fract_y
  _atom_site_fract_z
  _atom_site_occupancy
  C   C1        1.0  0.0002424061532742215  0.00023471709570120137  0.00013801714464586564  1.0000
  O   O1        1.0  0.0002424061532742215  0.00023471709570120137  0.00025431671705699276  1.0000
  In  In1       1.0  0.007115999184836267  0.004873190948490728  0.9992672478343251  1.0000
  In  In2       1.0  0.0004493324435555338  0.004873190948490728  0.9994203829812741  1.0000
  In  In3       1.0  0.003782665738573535  0.004873190948490728  0.9991141126916839  1.0000
  In  In4       1.0  0.007671554910181017  0.009873191463554143  0.9993693379390796  1.0000
  In  In5       1.0  0.0010048880176555528  0.009873191463554143  0.9995224730895027  1.0000
  In  In6       1.0  0.0043382214639182855  0.009873191463554143  0.9992162027964384  1.0000
  Sb  Sb1       1.0  0.005868705293647261  0.008615072766938367  0.9993818505563599  1.0000
  Sb  Sb2       1.0  0.009202038134931069  0.008615072766938367  0.9995349854240636  1.0000
  Sb  Sb3       1.0  0.0025353718473845282  0.008615072766938367  0.9992287154137187  1.0000
  Sb  Sb4       1.0  0.009757594248698402  0.0036150732056960916  0.9991776703712716  1.0000
  Sb  Sb5       1.0  0.0030909273561729378  0.0036150732056960916  0.9993308055216948  1.0000
  Sb  Sb6       1.0  0.006424260802435669  0.0036150732056960916  0.9994839403755019  1.0000
  In  In7       1.0  0.006996229153098497  0.005012891884663887  0.9997400049386017  1.0000
  In  In8       1.0  0.0007072836350691907  0.005354835332165998  0.9998281942324453  1.0000
  In  In9       1.0  0.003782665738573535  0.004873190948490728  0.9995735178385554  1.0000
  In  In10      1.0  0.007247566087782532  0.00012680889591719838  0.9998145181286279  1.0000
  In  In11      1.0  0.0007623000592873598  0.009416059329323032  0.999954076759237  1.0000
  In  In12      1.0  0.0043382214639182855  0.009873191463554143  0.9996756079433099  1.0000
  Sb  Sb7       1.0  0.005598764680661942  0.0086970069565762  0.9998663593484545  1.0000
  Sb  Sb8       1.0  0.008696799915341514  0.008804816406065435  2.48116814921978e-06  1.0000
  Sb  Sb9       1.0  0.0025353718473845282  0.008615072766938367  0.9996881205605902  1.0000
  Sb  Sb10      1.0  0.009757594248698402  0.0036150732056960916  0.9996370755181431  1.0000
  Sb  Sb11      1.0  0.0034369496408811575  0.0036386871940828538  0.9998029025071081  1.0000
  Sb  Sb12      1.0  0.005563978299767461  0.0037832817096082536  0.9999097918027314  1.0000
