data_image0
_chemical_formula_structural       HCu9Pt9
_chemical_formula_sum              "H1 Cu9 Pt9"
_cell_length_a       7.201792751434552
_cell_length_b       4.606788322559696
_cell_length_c       99.90914916992188
_cell_angle_alpha    94.04995989813047
_cell_angle_beta     92.58937228265836
_cell_angle_gamma    72.94365522560172

_space_group_name_H-M_alt    "P 1"
_space_group_IT_number       1

loop_
  _space_group_symop_operation_xyz
  'x, y, z'

loop_
  _atom_site_type_symbol
  _atom_site_label
  _atom_site_symmetry_multiplicity
  _atom_site_fract_x
  _atom_site_fract_y
  _atom_site_fract_z
  _atom_site_occupancy
  H   H1        1.0  0.005973643575164091  0.009285012192862476  0.00011137025188866322  1.0000
  Cu  Cu1       1.0  0.0054545454132137305  0.004048320843145868  0.9998514880954953  1.0000
  Cu  Cu2       1.0  0.0027272727066068652  0.007381654359656426  3.2920349679580054e-05  1.0000
  Cu  Cu3       1.0  0.009090909563271651  0.0007149873071046992  0.9999422042232683  1.0000
  Cu  Cu4       1.0  0.0045454547816358255  0.00404832049260824  0.9995793394166826  1.0000
  Cu  Cu5       1.0  0.0018181819397167687  0.0073816540707968385  0.9997607719689213  1.0000
  Cu  Cu6       1.0  0.008181818390444979  0.0007149872032792293  0.9996700555434964  1.0000
  Cu  Cu7       1.0  0.0036363636088091534  0.0040483207941211475  0.9993071907382307  1.0000
  Cu  Cu8       1.0  0.0009090909698583843  0.007381653874454309  0.9994886229912149  1.0000
  Cu  Cu9       1.0  0.007272727758867075  0.0007149872580799785  0.9993979068660037  1.0000
  Pt  Pt1       1.0  0.0059090909996270665  0.0090483205707879  0.9999875624074788  1.0000
  Pt  Pt2       1.0  0.0022727273908179127  0.002381654103319937  0.9998968460368557  1.0000
  Pt  Pt3       1.0  0.00954545460843622  0.005714987281458891  7.827853429255036e-05  1.0000
  Pt  Pt4       1.0  0.0050000003680491616  0.009048320220250271  0.9997154134303718  1.0000
  Pt  Pt5       1.0  0.0013636363533034326  0.0023816539378164274  0.9996246973573236  1.0000
  Pt  Pt6       1.0  0.008636363976858316  0.005714986930921262  0.9998061295571856  1.0000
  Pt  Pt7       1.0  0.004090909195222489  0.009048320927101557  0.9994432650515342  1.0000
  Pt  Pt8       1.0  0.00045454545110114417  0.0023816539133040674  0.9993525486786914  1.0000
  Pt  Pt9       1.0  0.007727272804031643  0.005714987637772549  0.999533981178348  1.0000
