data_image0
_chemical_formula_structural       COAg24Al12
_chemical_formula_sum              "C1 O1 Ag24 Al12"
_cell_length_a       6.923976338877912
_cell_length_b       6.923976561076548
_cell_length_c       103.4962158203125
_cell_angle_alpha    87.07893417935219
_cell_angle_beta     87.07893408553042
_cell_angle_gamma    79.80913751788242

_space_group_name_H-M_alt    "P 1"
_space_group_IT_number       1

loop_
  _space_group_symop_operation_xyz
  'x, y, z'

loop_
  _atom_site_type_symbol
  _atom_site_label
  _atom_site_symmetry_multiplicity
  _atom_site_fract_x
  _atom_site_fract_y
  _atom_site_fract_z
  _atom_site_occupancy
  C   C1        1.0  0.005123059878164148  0.0018702200099814169  8.052177952923817e-05  1.0000
  O   O1        1.0  0.005123059878164148  0.0018702200099814169  0.00019646770681690178  1.0000
  Ag  Ag1       1.0  0.007247192299261987  0.0040267934391058635  0.9992641562967368  1.0000
  Ag  Ag2       1.0  0.005247192021163527  0.002026793550724465  0.9988326274509371  1.0000
  Ag  Ag3       1.0  0.0012471922258164  0.008026793489443663  0.9990483920176099  1.0000
  Ag  Ag4       1.0  0.008026793999149965  0.001247192058985187  0.9990483920164409  1.0000
  Ag  Ag5       1.0  0.0040267937128920135  0.0072471917241293815  0.9992641562977642  1.0000
  Ag  Ag6       1.0  0.0020267936563405954  0.005247192109322988  0.9988326274502766  1.0000
  Ag  Ag7       1.0  0.007973206878243622  0.004752807606159008  0.9988813934079467  1.0000
  Ag  Ag8       1.0  0.003973206579456298  0.0007528078977899621  0.9990971578973845  1.0000
  Ag  Ag9       1.0  0.009973206569797778  0.00675280776811541  0.9993129225427689  1.0000
  Ag  Ag10      1.0  0.0007528079572237692  0.0039732063879947335  0.9990971578978346  1.0000
  Ag  Ag11      1.0  0.006752807935611065  0.009973206326713932  0.9993129225430267  1.0000
  Ag  Ag12      1.0  0.004752808244056909  0.00797320616475753  0.9988813934082044  1.0000
  Ag  Ag13      1.0  0.005231613856610218  0.001978774161312709  0.9999127972563822  1.0000
  Ag  Ag14      1.0  0.003247192023262328  2.6793600361229967e-05  0.9994799207865415  1.0000
  Ag  Ag15      1.0  0.00923709325274646  0.00600120038583793  0.9996888636400216  1.0000
  Ag  Ag16      1.0  0.0060011985978558275  0.00923709368552822  0.9996888642205533  1.0000
  Ag  Ag17      1.0  0.0019787778414669583  0.005231612012829888  0.9999127966742101  1.0000
  Ag  Ag18      1.0  2.6793628081710924e-05  0.0032471919473665853  0.9994799207867057  1.0000
  Ag  Ag19      1.0  0.005973206600145161  0.0027528077177776094  0.9995286867442948  1.0000
  Ag  Ag20      1.0  0.0019521531314762907  0.008702774891841137  0.9997452664078161  1.0000
  Ag  Ag21      1.0  0.008016597374199524  0.004712943350836997  0.9999566015306779  1.0000
  Ag  Ag22      1.0  0.008702770857461687  0.001952158596297421  0.9997452664029394  1.0000
  Ag  Ag23      1.0  0.004712945065997473  0.008016591877534486  0.99995660154357  1.0000
  Ag  Ag24      1.0  0.0027528079181417075  0.005973206549951137  0.9995286867437829  1.0000
  Al  Al1       1.0  0.0046548986394392205  0.004654898395031311  0.9990522552335769  1.0000
  Al  Al2       1.0  0.0006548986219698639  0.0006548986182685141  0.9992680197222887  1.0000
  Al  Al3       1.0  0.008654899100002663  0.008654898718944115  0.998836490741489  1.0000
  Al  Al4       1.0  0.0013451013628564448  0.0013451014069003862  0.9988775298276241  1.0000
  Al  Al5       1.0  0.007345101317335371  0.007345101482407087  0.9990932944724313  1.0000
  Al  Al6       1.0  0.0033451013476827533  0.0033451014320692867  0.9993090589619129  1.0000
  Al  Al7       1.0  0.0026097115761314184  0.002609711028894843  0.9996905940102825  1.0000
  Al  Al8       1.0  0.00861079427945916  0.008610793503905933  0.9999130407717285  1.0000
  Al  Al9       1.0  0.006654898869720942  0.006654898556987713  0.9994837840786068  1.0000
  Al  Al10      1.0  0.009345102181978137  0.009345101097213482  0.9995248236051196  1.0000
  Al  Al11      1.0  0.005317047496232954  0.005317046203762935  0.999749607820313  1.0000
  Al  Al12      1.0  0.0013773050605899117  0.0013773043310153549  0.9999474816657649  1.0000
