data_image0
_chemical_formula_structural       CORe6Ir18Re6Ir18
_chemical_formula_sum              "C1 O1 Re12 Ir36"
_cell_length_a       5.550826626350222
_cell_length_b       10.416985245781733
_cell_length_c       112.52690124511719
_cell_angle_alpha    83.74903673465217
_cell_angle_beta     113.05254646935998
_cell_angle_gamma    74.5479672541076

_space_group_name_H-M_alt    "P 1"
_space_group_IT_number       1

loop_
  _space_group_symop_operation_xyz
  'x, y, z'

loop_
  _atom_site_type_symbol
  _atom_site_label
  _atom_site_symmetry_multiplicity
  _atom_site_fract_x
  _atom_site_fract_y
  _atom_site_fract_z
  _atom_site_occupancy
  C   C1        1.0  0.006617388949424806  0.0070395723950022965  5.686440380006536e-05  1.0000
  O   O1        1.0  0.006617388949424806  0.0070395723950022965  0.0001635052566207681  1.0000
  Re  Re1       1.0  0.006768584477570807  0.0013631091526199544  0.9989351308612108  1.0000
  Re  Re2       1.0  0.006768584334810447  0.004696442538192503  0.9991450899479036  1.0000
  Re  Re3       1.0  0.006768585117806451  0.008029775637086432  0.9993550493202144  1.0000
  Re  Re4       1.0  0.0034352511274963623  0.008585331280981472  0.9989701242288886  1.0000
  Re  Re5       1.0  0.0034352512820903323  0.0019186647009554558  0.9991800834163231  1.0000
  Re  Re6       1.0  0.003435251073866598  0.005251998182087544  0.9987601648706664  1.0000
  Ir  Ir1       1.0  0.003450439748987569  0.00024946661206705443  0.9987604836873526  1.0000
  Ir  Ir2       1.0  0.0034504395571296784  0.0035828000693092577  0.998970443037221  1.0000
  Ir  Ir3       1.0  0.0034504396107594417  0.006916133168203186  0.9991804018657509  1.0000
  Ir  Ir4       1.0  0.00842765691215671  0.008590394407644118  0.9989694862876592  1.0000
  Ir  Ir5       1.0  0.00842765732860418  0.0019237274453799405  0.9991794454840046  1.0000
  Ir  Ir6       1.0  0.008427657120380445  0.005257060926512029  0.9987595269383479  1.0000
  Ir  Ir7       1.0  0.008427656856647347  0.00024946661206705443  0.9987604837457773  1.0000
  Ir  Ir8       1.0  0.008427656664789457  0.0035828000693092577  0.9989704428307995  1.0000
  Ir  Ir9       1.0  0.008427657447785461  0.006916133168203186  0.999180401938264  1.0000
  Ir  Ir10      1.0  0.00675339590517713  0.009698973749864719  0.9991447711395713  1.0000
  Ir  Ir11      1.0  0.006753396059771102  0.003032307169838701  0.9993547303270058  1.0000
  Ir  Ir12      1.0  0.006753395851547367  0.006365640650970789  0.9989348120461953  1.0000
  Ir  Ir13      1.0  0.001776178861203455  0.0013580463126359299  0.998935768537955  1.0000
  Ir  Ir14      1.0  0.00177617865297972  0.004691379793768018  0.9991457278872664  1.0000
  Ir  Ir15      1.0  0.0017761788094391054  0.008024713274900107  0.999355687243622  1.0000
  Ir  Ir16      1.0  0.0017761787975173514  0.009698973749864719  0.9991447710811466  1.0000
  Ir  Ir17      1.0  0.0017761789521113232  0.003032307169838701  0.9993547302685811  1.0000
  Ir  Ir18      1.0  0.0017761787438875887  0.006365640650970789  0.9989348117229244  1.0000
  Re  Re7       1.0  0.006768584477570807  0.0013631091526199544  0.9995650084913327  1.0000
  Re  Re8       1.0  0.006854329754544933  0.004675245138811286  0.9997845431976016  1.0000
  Re  Re9       1.0  0.006539130080167611  0.008059717881083983  0.999957884205199  1.0000
  Re  Re10      1.0  0.0034352511274963623  0.008585331280981472  0.9996000015941644  1.0000
  Re  Re11      1.0  0.0034163796219673645  0.0019937186925541913  0.9998124363460669  1.0000
  Re  Re12      1.0  0.003435251073866598  0.005251998182087544  0.9993900422359422  1.0000
  Ir  Ir19      1.0  0.003450439748987569  0.00024946661206705443  0.9993903615823208  1.0000
  Ir  Ir20      1.0  0.0034504395571296784  0.0035828000693092577  0.9996003204024967  1.0000
  Ir  Ir21      1.0  0.003532387077972004  0.006873918021375785  0.9998111736989489  1.0000
  Ir  Ir22      1.0  0.00842765691215671  0.008590394407644118  0.999599363652935  1.0000
  Ir  Ir23      1.0  0.00842371912837682  0.0018909707818129298  0.9998069348511519  1.0000
  Ir  Ir24      1.0  0.008427657120380445  0.005257060926512029  0.999389404833316  1.0000
  Ir  Ir25      1.0  0.008427656856647347  0.00024946661206705443  0.9993903611110531  1.0000
  Ir  Ir26      1.0  0.008427656664789457  0.0035828000693092577  0.9996003204609214  1.0000
  Ir  Ir27      1.0  0.008402435068717823  0.006874239101429886  0.9998111959090459  1.0000
  Ir  Ir28      1.0  0.006679727577610315  0.009750201308020205  0.999781767440669  1.0000
  Ir  Ir29      1.0  0.006579409986356515  0.0030818823124300473  0.99996445023378  1.0000
  Ir  Ir30      1.0  0.006753395851547367  0.006365640650970789  0.9995646896763172  1.0000
  Ir  Ir31      1.0  0.001776178861203455  0.0013580463126359299  0.9995656464329231  1.0000
  Ir  Ir32      1.0  0.0017131826602904657  0.0047496397695846355  0.9997713984955519  1.0000
  Ir  Ir33      1.0  0.0015723424861072114  0.008065407113852124  0.9999627096785465  1.0000
  Ir  Ir34      1.0  0.0019101921511555185  0.009750533855219096  0.9997817303417941  1.0000
  Ir  Ir35      1.0  0.001577565556452856  0.0030820019529740157  0.9999644134432668  1.0000
  Ir  Ir36      1.0  0.0017761787438875887  0.006365640650970789  0.9995646896178926  1.0000
