data_image0
_chemical_formula_structural       HMn6Au12Mn6Au12
_chemical_formula_sum              "H1 Mn12 Au24"
_cell_length_a       10.958927979258984
_cell_length_b       6.656136989593506
_cell_length_c       107.28162384033203
_cell_angle_alpha    90.0
_cell_angle_beta     121.67976637705911
_cell_angle_gamma    90.0

_space_group_name_H-M_alt    "P 1"
_space_group_IT_number       1

loop_
  _space_group_symop_operation_xyz
  'x, y, z'

loop_
  _atom_site_type_symbol
  _atom_site_label
  _atom_site_symmetry_multiplicity
  _atom_site_fract_x
  _atom_site_fract_y
  _atom_site_fract_z
  _atom_site_occupancy
  H   H1        1.0  0.008511764867091636  0.0037500023058714164  0.0003398452734526244  1.0000
  Mn  Mn1       1.0  0.006828927023802256  4.900000309451772e-09  0.9999947293410867  1.0000
  Mn  Mn2       1.0  0.0003551977436306061  2.100000075434679e-09  0.9994372020108416  1.0000
  Mn  Mn3       1.0  0.003688530879235376  2.100000075434679e-09  0.9997267951433686  1.0000
  Mn  Mn4       1.0  0.0070218645640861554  0.0025000022834843153  0.9995819985295442  1.0000
  Mn  Mn5       1.0  0.0003551977436306061  0.0025000022834843153  0.9998715915088631  1.0000
  Mn  Mn6       1.0  0.0008937706545259955  0.0024999882915461074  4.794791140394631e-05  1.0000
  Au  Au1       1.0  0.005887465837617244  0.0025000022834843153  0.9997791070631894  1.0000
  Au  Au2       1.0  0.007874542829192381  0.0025000022834843153  0.0002163136461534349  1.0000
  Au  Au3       1.0  0.0025541327519439296  0.0025000022834843153  0.9994895139333411  1.0000
  Au  Au4       1.0  0.00815626249165178  2.100000075434679e-09  0.9998192800066522  1.0000
  Au  Au5       1.0  0.009644802262361168  6.999999984573888e-09  0.00013832649199843936  1.0000
  Au  Au6       1.0  0.0048229292062526435  2.100000075434679e-09  0.9995296868660892  1.0000
  Au  Au7       1.0  0.009220799522468024  2.100000075434679e-09  0.999634310449365  1.0000
  Au  Au8       1.0  0.0025541327519439296  2.100000075434679e-09  0.9999239037091577  1.0000
  Au  Au9       1.0  0.00308968915382567  0.009999997940386696  0.00020623106103041813  1.0000
  Au  Au10      1.0  0.0054280037753740625  0.002499997246386561  0.00025514095576579805  1.0000
  Au  Au11      1.0  0.0014895960207164185  0.0025000022834843153  0.9996744832289051  1.0000
  Au  Au12      1.0  0.0048229292062526435  0.0025000022834843153  0.9999640766419059  1.0000
  Mn  Mn7       1.0  0.006828927023802256  0.005000005126646159  0.9999947293410867  1.0000
  Mn  Mn8       1.0  0.0003551977436306061  0.0050000023282585175  0.9994372020108416  1.0000
  Mn  Mn9       1.0  0.003688530879235376  0.0050000023282585175  0.9997267951433686  1.0000
  Mn  Mn10      1.0  0.0070218645640861554  0.00750000237303272  0.9995819985295442  1.0000
  Mn  Mn11      1.0  0.0003551977436306061  0.00750000237303272  0.9998715915088631  1.0000
  Mn  Mn12      1.0  0.0008937706545259955  0.007499988381094512  4.794791140394631e-05  1.0000
  Au  Au13      1.0  0.005887465837617244  0.00750000237303272  0.9997791070631894  1.0000
  Au  Au14      1.0  0.007874542829192381  0.00750000237303272  0.0002163136461534349  1.0000
  Au  Au15      1.0  0.0025541327519439296  0.00750000237303272  0.9994895139333411  1.0000
  Au  Au16      1.0  0.00815626249165178  0.0050000023282585175  0.9998192800066522  1.0000
  Au  Au17      1.0  0.009644802262361168  0.005000007365356273  0.00013832649199843936  1.0000
  Au  Au18      1.0  0.0048229292062526435  0.0050000023282585175  0.9995296868660892  1.0000
  Au  Au19      1.0  0.009220799522468024  0.0050000023282585175  0.999634310449365  1.0000
  Au  Au20      1.0  0.0025541327519439296  0.0050000023282585175  0.9999239037091577  1.0000
  Au  Au21      1.0  0.00308968915382567  0.004999997850838291  0.00020623106103041813  1.0000
  Au  Au22      1.0  0.0054280037753740625  0.007499997335934965  0.00025514095576579805  1.0000
  Au  Au23      1.0  0.0014895960207164185  0.00750000237303272  0.9996744832289051  1.0000
  Au  Au24      1.0  0.0048229292062526435  0.00750000237303272  0.9999640766419059  1.0000
