data_image0
_chemical_formula_structural       HCo6Fe3Se12Co6Fe3Se12
_chemical_formula_sum              "H1 Co12 Fe6 Se24"
_cell_length_a       10.791363235967204
_cell_length_b       7.104316234588623
_cell_length_c       107.01675415039062
_cell_angle_alpha    90.0
_cell_angle_beta     88.93975469728159
_cell_angle_gamma    99.4730331490016

_space_group_name_H-M_alt    "P 1"
_space_group_IT_number       1

loop_
  _space_group_symop_operation_xyz
  'x, y, z'

loop_
  _atom_site_type_symbol
  _atom_site_label
  _atom_site_symmetry_multiplicity
  _atom_site_fract_x
  _atom_site_fract_y
  _atom_site_fract_z
  _atom_site_occupancy
  H   H1        1.0  0.002577159674982069  0.0014823678095125848  7.640971853652959e-05  1.0000
  Co  Co1       1.0  0.008783051183937117  0.004694344154900962  0.9998240657672075  1.0000
  Co  Co2       1.0  0.0037057749020950434  0.0034267379390429294  0.9995358395957847  1.0000
  Co  Co3       1.0  0.008705775336150358  0.0021767382340268774  0.999247592437532  1.0000
  Co  Co4       1.0  0.006280413555806229  0.0015703978139367538  0.9997095263797402  1.0000
  Co  Co5       1.0  0.0012804132967732182  0.00032039774917850096  0.9994212791099951  1.0000
  Co  Co6       1.0  0.001187079765146615  0.0027939095448904533  0.9999570090483048  1.0000
  Fe  Fe1       1.0  0.002493094186945283  0.0006235679467256084  0.9991903118604083  1.0000
  Fe  Fe2       1.0  0.0026609034720235835  0.0031696623423339825  0.9997555476893737  1.0000
  Fe  Fe3       1.0  0.007493094095933685  0.001873567923972709  0.9994785591308064  1.0000
  Se  Se1       1.0  0.006534019474532972  0.004131992365320063  0.9998526439119167  1.0000
  Se  Se2       1.0  0.0014790644872452483  0.0028700605975154796  0.9995631858562901  1.0000
  Se  Se3       1.0  0.0064790645712559545  0.0016200605927950938  0.9992749386986906  1.0000
  Se  Se4       1.0  0.008507123620611415  0.0021270753801298677  0.9996821801198879  1.0000
  Se  Se5       1.0  0.0035071238866453175  0.0008770754466383433  0.9993939328491631  1.0000
  Se  Se6       1.0  0.0033179968849054225  0.003338046231978407  0.9999633769789127  1.0000
  Se  Se7       1.0  0.0010219498965245734  0.0002520263492119817  0.9998270017042845  1.0000
  Se  Se8       1.0  0.005995471643720766  0.00399916238663436  0.9995508856486547  1.0000
  Se  Se9       1.0  0.0009954716472212125  0.002749162387509471  0.9992626380999371  1.0000
  Se  Se10      1.0  0.003990716814180505  0.0009979736785221403  0.9996944803268701  1.0000
  Se  Se11      1.0  0.008990716548146602  0.004747973612740819  0.9994062331699237  1.0000
  Se  Se12      1.0  0.009004528608311352  0.002249331002068012  0.9999831986392279  1.0000
  Co  Co7       1.0  0.008783051183937117  0.009694343976615163  0.9998240657672075  1.0000
  Co  Co8       1.0  0.0037057749020950434  0.008426738022942129  0.9995358395957847  1.0000
  Co  Co9       1.0  0.008705775336150358  0.007176738089506358  0.999247592437532  1.0000
  Co  Co10      1.0  0.006280413555806229  0.006570397644420326  0.9997095263797402  1.0000
  Co  Co11      1.0  0.0012804132967732182  0.005320397579662073  0.9994212791099951  1.0000
  Co  Co12      1.0  0.001187079765146615  0.007793909628789653  0.9999570090483048  1.0000
  Fe  Fe4       1.0  0.002493094186945283  0.005623567802205089  0.9991903118604083  1.0000
  Fe  Fe5       1.0  0.0026609034720235835  0.008169662164048182  0.9997555476893737  1.0000
  Fe  Fe6       1.0  0.007493094095933685  0.006873567779452189  0.9994785591308064  1.0000
  Se  Se13      1.0  0.006534019474532972  0.009131992187034265  0.9998526439119167  1.0000
  Se  Se14      1.0  0.0014790644872452483  0.00787006041922968  0.9995631858562901  1.0000
  Se  Se15      1.0  0.0064790645712559545  0.006620060398282757  0.9992749386986906  1.0000
  Se  Se16      1.0  0.008507123620611415  0.007127075160621622  0.9996821801198879  1.0000
  Se  Se17      1.0  0.0035071238866453175  0.0058770752271300975  0.9993939328491631  1.0000
  Se  Se18      1.0  0.0033179968849054225  0.008338046053692608  0.9999633769789127  1.0000
  Se  Se19      1.0  0.0010219498965245734  0.005252026191665426  0.9998270017042845  1.0000
  Se  Se20      1.0  0.005995471643720766  0.008999162208348559  0.9995508856486547  1.0000
  Se  Se21      1.0  0.0009954716472212125  0.007749162209223672  0.9992626380999371  1.0000
  Se  Se22      1.0  0.003990716814180505  0.005997973459013895  0.9996944803268701  1.0000
  Se  Se23      1.0  0.008990716548146602  0.009747973434455019  0.9994062331699237  1.0000
  Se  Se24      1.0  0.009004528608311352  0.007249331025029682  0.9999831986392279  1.0000
