data_image0
_chemical_formula_structural       COSi20Os20
_chemical_formula_sum              "C1 O1 Si20 Os20"
_cell_length_a       6.801784992218018
_cell_length_b       10.754566034720131
_cell_length_c       103.32180786132812
_cell_angle_alpha    75.03678216147429
_cell_angle_beta     90.0
_cell_angle_gamma    71.5650505904058

_space_group_name_H-M_alt    "P 1"
_space_group_IT_number       1

loop_
  _space_group_symop_operation_xyz
  'x, y, z'

loop_
  _atom_site_type_symbol
  _atom_site_label
  _atom_site_symmetry_multiplicity
  _atom_site_fract_x
  _atom_site_fract_y
  _atom_site_fract_z
  _atom_site_occupancy
  C   C1        1.0  0.006276668689701564  0.003094365592482709  0.9999076703665281  1.0000
  O   O1        1.0  0.006276668689701564  0.003094365592482709  2.3812588263146936e-05  1.0000
  Si  Si1       1.0  0.008031015342079858  0.005659069981505527  0.9993302321773585  1.0000
  Si  Si2       1.0  0.006031015199405574  0.009659070266854095  0.9994914849263621  1.0000
  Si  Si3       1.0  3.10154912141342e-05  0.0016590698858834007  0.9991689797116978  1.0000
  Si  Si4       1.0  0.003973459175691089  0.003722107966766873  0.9996554847135223  1.0000
  Si  Si5       1.0  0.002095840443253784  0.007538799876865414  0.9997973915795764  1.0000
  Si  Si6       1.0  0.0003220218813563435  0.0026590699572205424  0.9994108584409707  1.0000
  Si  Si7       1.0  0.008539753603158349  0.006373236734060089  0.9995896427945  1.0000
  Si  Si8       1.0  0.002322021703717308  0.008659070005790512  0.9992496059137465  1.0000
  Si  Si9       1.0  0.006453615077819062  0.0005065128700825213  0.9997295252658422  1.0000
  Si  Si10      1.0  0.004322021656665151  0.004659070099894826  0.9990883534429867  1.0000
  Si  Si11      1.0  0.0056638207643049795  0.0036844658613587717  0.9993833004943692  1.0000
  Si  Si12      1.0  0.003728228892630351  0.007658015624619029  0.9995275785952361  1.0000
  Si  Si13      1.0  0.007663820396939502  0.009684466289381624  0.9992220479569469  1.0000
  Si  Si14      1.0  0.0015159625305176247  0.0015606618164007574  0.9997069460974903  1.0000
  Si  Si15      1.0  0.009663820539613788  0.005684466004033056  0.9990607954963852  1.0000
  Si  Si16      1.0  0.007754070070009858  0.0041588290167825755  0.9997438063615741  1.0000
  Si  Si17      1.0  0.006005619512707582  0.008000868758892554  0.9990904009507434  1.0000
  Si  Si18      1.0  0.009976960154533952  1.6551850354133054e-05  0.9995701311708927  1.0000
  Si  Si19      1.0  0.004005619237516799  0.0020008685205961437  0.9992516534830668  1.0000
  Si  Si20      1.0  0.002005619189705736  0.00600086861621827  0.9994129062371692  1.0000
  Os  Os1       1.0  0.007363996770839365  0.0025169225436855298  0.9996201305744029  1.0000
  Os  Os2       1.0  0.005619556815782721  0.006642550381871667  0.9997373898175019  1.0000
  Os  Os3       1.0  0.009479488571319762  0.00850957923034473  0.9994451448206836  1.0000
  Os  Os4       1.0  0.0034794888420983014  0.0005095787545108144  0.9991226401854524  1.0000
  Os  Os5       1.0  0.001479488746855628  0.004509578944996161  0.9992838926485635  1.0000
  Os  Os6       1.0  0.006064296286412381  0.005437954059390581  0.9995186856970864  1.0000
  Os  Os7       1.0  0.00406486636243661  0.009434632993657635  0.9996884675142094  1.0000
  Os  Os8       1.0  0.00802303983436807  0.0015095788258479563  0.9993645189147252  1.0000
  Os  Os9       1.0  0.0020230397848332903  0.003509578683932578  0.9990420139243897  1.0000
  Os  Os10      1.0  2.303964215900629e-05  0.007509578969281145  0.9992032663849515  1.0000
  Os  Os11      1.0  0.000513594969060703  0.0038792557219309047  0.9995790643330795  1.0000
  Os  Os12      1.0  0.008257680089901277  0.008113353012508612  0.9997026795084968  1.0000
  Os  Os13      1.0  0.0025143293953948887  0.009983448599178954  0.999405533960917  1.0000
  Os  Os14      1.0  0.006514329585880235  0.0019834482182082597  0.9990830293231363  1.0000
  Os  Os15      1.0  0.004514329538069173  0.005983448313830386  0.9992442817887971  1.0000
  Os  Os16      1.0  0.008005619655381867  0.0040008684735439864  0.9991608462431457  1.0000
  Os  Os17      1.0  0.006005619512707582  0.008000868758892554  0.9993220987037075  1.0000
  Os  Os18      1.0  6.531845460909989e-05  0.00978473216017754  0.9997957002545567  1.0000
  Os  Os19      1.0  0.004005619237516799  0.0020008685205961437  0.9994833512360308  1.0000
  Os  Os20      1.0  0.0020982075970591954  0.0060439308266016165  0.999641687180466  1.0000
