data_image0
_chemical_formula_structural       CORe12
_chemical_formula_sum              "C1 O1 Re12"
_cell_length_a       4.819126605987549
_cell_length_b       5.290000078215209
_cell_length_c       100.6055679321289
_cell_angle_alpha    105.246934047958
_cell_angle_beta     90.0
_cell_angle_gamma    62.903276348246216

_space_group_name_H-M_alt    "P 1"
_space_group_IT_number       1

loop_
  _space_group_symop_operation_xyz
  'x, y, z'

loop_
  _atom_site_type_symbol
  _atom_site_label
  _atom_site_symmetry_multiplicity
  _atom_site_fract_x
  _atom_site_fract_y
  _atom_site_fract_z
  _atom_site_occupancy
  C   C1        1.0  0.0077706950702797414  0.002146588805243495  0.00011829801301952838  1.0000
  O   O1        1.0  0.0077706950702797414  0.002146588805243495  0.00023757594728645277  1.0000
  Re  Re1       1.0  0.0004166668025613336  0.0026364647640559585  0.9993658275358296  1.0000
  Re  Re2       1.0  0.0054166666170360825  0.0026364647640559585  0.9995041065095439  1.0000
  Re  Re3       1.0  0.004583333686532468  0.007636464350060939  0.9994349669458671  1.0000
  Re  Re4       1.0  0.009583334274029095  0.007636464350060939  0.999296688268382  1.0000
  Re  Re5       1.0  0.0004166668025613336  0.0026364647640559585  0.999642385187029  1.0000
  Re  Re6       1.0  0.005407574963224363  0.0025701181293386675  0.9997751856838689  1.0000
  Re  Re7       1.0  0.004583333686532468  0.007636464350060939  0.9997115248932958  1.0000
  Re  Re8       1.0  0.009583334274029095  0.007636464350060939  0.9995732459195814  1.0000
  Re  Re9       1.0  0.0005364394512633846  0.0026146186609082717  0.9999196091266247  1.0000
  Re  Re10      1.0  0.005045348554624269  0.0025601027618435694  3.540080184898847e-05  1.0000
  Re  Re11      1.0  0.004889538180265358  0.007358365680144136  0.9999753655518921  1.0000
  Re  Re12      1.0  0.009436114006575708  0.007853410987758994  0.9998592710590211  1.0000
