data_image0
_chemical_formula_structural       HGa4Pd8Ga4Pd8
_chemical_formula_sum              "H1 Ga8 Pd16"
_cell_length_a       8.957282429451741
_cell_length_b       5.6205058097839355
_cell_length_c       102.9971923828125
_cell_angle_alpha    90.0
_cell_angle_beta     62.58191726959637
_cell_angle_gamma    90.0

_space_group_name_H-M_alt    "P 1"
_space_group_IT_number       1

loop_
  _space_group_symop_operation_xyz
  'x, y, z'

loop_
  _atom_site_type_symbol
  _atom_site_label
  _atom_site_symmetry_multiplicity
  _atom_site_fract_x
  _atom_site_fract_y
  _atom_site_fract_z
  _atom_site_occupancy
  H   H1        1.0  0.00957602510151613  0.0015124923128062948  0.9998528609613808  1.0000
  Ga  Ga1       1.0  0.0007665490496937275  0.007157544865956764  0.999597438183439  1.0000
  Ga  Ga2       1.0  0.008656181351797245  0.0029293470676093392  0.999470728237448  1.0000
  Ga  Ga3       1.0  0.003656182569960821  0.002070647828804566  0.9994707279803325  1.0000
  Ga  Ga4       1.0  0.005766550701242422  0.007842445457113758  0.9995974383256334  1.0000
  Pd  Pd1       1.0  0.004129928727310672  0.006610607463017692  0.9994487863368611  1.0000
  Pd  Pd2       1.0  0.005423978271859926  0.0033630411975255907  0.9995983822204038  1.0000
  Pd  Pd3       1.0  0.00042397524402065345  0.0016369460766493412  0.9995983821333247  1.0000
  Pd  Pd4       1.0  0.009129922355378121  0.008389384185659607  0.9994487868003655  1.0000
  Pd  Pd5       1.0  0.007771834888684588  0.005462628679301149  0.9996951538795618  1.0000
  Pd  Pd6       1.0  0.001982690532777521  0.004543173899247946  0.9997203659024417  1.0000
  Pd  Pd7       1.0  0.006982841585060952  0.0004569424973121997  0.99972036353391  1.0000
  Pd  Pd8       1.0  0.002771837043897068  0.009537360980965984  0.9996951530062194  1.0000
  Ga  Ga5       1.0  0.000841720635529806  0.007050109076228116  0.9991823566828019  1.0000
  Ga  Ga6       1.0  0.008681801205899481  0.0029498909900522226  0.9990686220877704  1.0000
  Ga  Ga7       1.0  0.0036818017212763778  0.002050109208788794  0.9990686221481496  1.0000
  Ga  Ga8       1.0  0.00584172076437403  0.007949891188893238  0.9991823565966239  1.0000
  Pd  Pd9       1.0  0.004097651140740848  0.006642347791708786  0.9990519689474908  1.0000
  Pd  Pd10      1.0  0.005425871110647335  0.0033576526059732477  0.999199009806664  1.0000
  Pd  Pd11      1.0  0.0004258709525203317  0.001642347592867769  0.9991990098940147  1.0000
  Pd  Pd12      1.0  0.009097651328150628  0.00835765247341257  0.9990519688589675  1.0000
  Pd  Pd13      1.0  0.007681113561931287  0.005413061590660262  0.9993089272015527  1.0000
  Pd  Pd14      1.0  0.0018424085723257825  0.004586938475620077  0.999342513964445  1.0000
  Pd  Pd15      1.0  0.006842408408342224  0.0004130615989453048  0.9993425141793445  1.0000
  Pd  Pd16      1.0  0.0026811136087837315  0.009586938674461093  0.9993089269913439  1.0000
