data_image0
_chemical_formula_structural       HNi6Sb2Ni6Sb2
_chemical_formula_sum              "H1 Ni12 Sb4"
_cell_length_a       5.338311195373535
_cell_length_b       5.3383112359595
_cell_length_c       100.3328628540039
_cell_angle_alpha    90.0
_cell_angle_beta     90.0
_cell_angle_gamma    119.9999997485023

_space_group_name_H-M_alt    "P 1"
_space_group_IT_number       1

loop_
  _space_group_symop_operation_xyz
  'x, y, z'

loop_
  _atom_site_type_symbol
  _atom_site_label
  _atom_site_symmetry_multiplicity
  _atom_site_fract_x
  _atom_site_fract_y
  _atom_site_fract_z
  _atom_site_occupancy
  H   H1        1.0  0.0008117437256099308  0.009188249152611077  0.00012279465899069937  1.0000
  Ni  Ni1       1.0  0.007564792355371395  0.007564823009351577  0.9993612356110783  1.0000
  Ni  Ni2       1.0  0.0024351837288054414  0.007564823009351577  0.9993612356110783  1.0000
  Ni  Ni3       1.0  0.009188256426766607  0.005941358993637273  0.9995771799942231  1.0000
  Ni  Ni4       1.0  0.004058647607133931  0.000811750591548405  0.9995771799942231  1.0000
  Ni  Ni5       1.0  0.009188255797549508  0.000811750591548405  0.9995771799942231  1.0000
  Ni  Ni6       1.0  0.0024351837722477935  0.0024352145569004014  0.9993612356110783  1.0000
  Sb  Sb1       1.0  0.0041450531892484425  0.0058549533909016994  0.9995771799942231  1.0000
  Sb  Sb2       1.0  0.007478387009765957  0.002521620159635975  0.9993612356110783  1.0000
  Ni  Ni7       1.0  0.007526463774392738  0.0075455032226203625  0.9997940338970266  1.0000
  Ni  Ni8       1.0  0.002454063826444712  0.007545778805163826  0.9997940303326125  1.0000
  Ni  Ni9       1.0  0.00916639877802898  0.005897739998165104  0.0  1.0000
  Ni  Ni10      1.0  0.004102209707187206  0.0008335952925370262  0.9999999970296549  1.0000
  Ni  Ni11      1.0  0.009166623346736734  0.0008334127795367501  0.9999999976237239  1.0000
  Ni  Ni12      1.0  0.002454505610770841  0.0024737050579343484  0.9997940356792336  1.0000
  Sb  Sb3       1.0  0.004145054207082566  0.005854947750323324  2.6477655895305158e-05  1.0000
  Sb  Sb4       1.0  0.007478581156163676  0.002521726524828189  0.9997907255266949  1.0000
