data_image0
_chemical_formula_structural       COCa8In8
_chemical_formula_sum              "C1 O1 Ca8 In8"
_cell_length_a       5.550899028778076
_cell_length_b       6.798435211181641
_cell_length_c       108.45775604248047
_cell_angle_alpha    90.0
_cell_angle_beta     90.0
_cell_angle_gamma    90.0

_space_group_name_H-M_alt    "P 1"
_space_group_IT_number       1

loop_
  _space_group_symop_operation_xyz
  'x, y, z'

loop_
  _atom_site_type_symbol
  _atom_site_label
  _atom_site_symmetry_multiplicity
  _atom_site_fract_x
  _atom_site_fract_y
  _atom_site_fract_z
  _atom_site_occupancy
  C   C1        1.0  8.695000623827285e-08  0.007612737931629941  0.00015969824895230826  1.0000
  O   O1        1.0  8.695000623827285e-08  0.007612737931629941  0.000270340629511933  1.0000
  Ca  Ca1       1.0  5.435000438223995e-08  0.0009442706351168857  0.9994112454957609  1.0000
  Ca  Ca2       1.0  0.0050000546555864795  0.0009442706351168857  0.99896801154879  1.0000
  Ca  Ca3       1.0  5.435000438223995e-08  0.007610937325528612  0.9991157561977803  1.0000
  Ca  Ca4       1.0  0.0050000546555864795  0.004277603911827386  0.9992635008467706  1.0000
  Ca  Ca5       1.0  8.695000623827285e-08  0.007612737931629941  0.0  1.0000
  Ca  Ca6       1.0  0.0050000546555864795  0.007610937325528612  0.9995589906943168  1.0000
  Ca  Ca7       1.0  5.435000438223995e-08  0.004277603911827386  0.999706735343307  1.0000
  Ca  Ca8       1.0  0.00500001875094654  0.0007223961402290903  0.999852677417341  1.0000
  In  In1       1.0  5.435000438223995e-08  0.0026109372049767728  0.9991157561977803  1.0000
  In  In2       1.0  0.0050000546555864795  0.009277603758397774  0.9992635008467706  1.0000
  In  In3       1.0  5.435000438223995e-08  0.005944270892659451  0.9994112454957609  1.0000
  In  In4       1.0  0.0050000546555864795  0.005944270892659451  0.99896801154879  1.0000
  In  In5       1.0  5.435000438223995e-08  0.009277603758397774  0.999706735343307  1.0000
  In  In6       1.0  0.005000095593587158  0.005618457081826977  0.9998825891703055  1.0000
  In  In7       1.0  0.00999994623028501  0.0026240455735574183  0.999992112635435  1.0000
  In  In8       1.0  0.0050000546555864795  0.0026109372049767728  0.9995589906943168  1.0000
