data_image0
_chemical_formula_structural       CORh18Sn6
_chemical_formula_sum              "C1 O1 Rh18 Sn6"
_cell_length_a       4.790399624339425
_cell_length_b       7.465947260073139
_cell_length_c       101.78018188476562
_cell_angle_alpha    86.83417369535155
_cell_angle_beta     88.76065180969715
_cell_angle_gamma    87.36151629335913

_space_group_name_H-M_alt    "P 1"
_space_group_IT_number       1

loop_
  _space_group_symop_operation_xyz
  'x, y, z'

loop_
  _atom_site_type_symbol
  _atom_site_label
  _atom_site_symmetry_multiplicity
  _atom_site_fract_x
  _atom_site_fract_y
  _atom_site_fract_z
  _atom_site_occupancy
  C   C1        1.0  0.009097390625515143  0.005568150681521662  6.203150985983826e-05  1.0000
  O   O1        1.0  0.009097390625515143  0.005568150681521662  0.00017993289396505985  1.0000
  Rh  Rh1       1.0  0.0025000001582975435  0.004305555837912369  0.9998481973442772  1.0000
  Rh  Rh2       1.0  0.005833333626935071  0.008749999879942771  0.9996747288354028  1.0000
  Rh  Rh3       1.0  0.009166666887374737  0.0031944444522259315  0.9995012602396772  1.0000
  Rh  Rh4       1.0  0.005833333777951625  0.007083333426711177  0.9999349315984707  1.0000
  Rh  Rh5       1.0  0.009166667047134964  0.0015277778739347242  0.9997614630032428  1.0000
  Rh  Rh6       1.0  0.002500000201740861  0.005972222291143964  0.9995879945810113  1.0000
  Rh  Rh7       1.0  0.007500000297963536  0.003472222361177347  0.9999782989756482  1.0000
  Rh  Rh8       1.0  0.0008333333640831722  0.007916666653326975  0.9998048305540135  1.0000
  Rh  Rh9       1.0  0.004166666916212644  0.002361111225610134  0.9996313619579908  1.0000
  Rh  Rh10      1.0  0.0025000002451841786  0.0076388887443755585  0.9993277921105562  1.0000
  Rh  Rh11      1.0  0.005833333505623843  0.0020833333166587185  0.9991543235148306  1.0000
  Rh  Rh12      1.0  0.009166667310719072  0.006527778109046796  0.9989808550025739  1.0000
  Rh  Rh13      1.0  0.005833333667569989  0.000416666707102608  0.9994145262785206  1.0000
  Rh  Rh14      1.0  0.009166666718870835  0.004861111155576751  0.9992410577684245  1.0000
  Rh  Rh15      1.0  0.002500000253652801  0.009305555697845603  0.9990675893452995  1.0000
  Rh  Rh16      1.0  0.0075000007562825675  0.006805555517759762  0.9994578934477251  1.0000
  Rh  Rh17      1.0  0.0008333333487455533  0.0012499999649833084  0.9992844249410293  1.0000
  Rh  Rh18      1.0  0.004166666985611932  0.005694444382192548  0.9991109564304638  1.0000
  Sn  Sn1       1.0  0.0008333334075264896  0.009583333106558569  0.9995446277907476  1.0000
  Sn  Sn2       1.0  0.004166666704540477  0.000694444397199702  0.9998915647229478  1.0000
  Sn  Sn3       1.0  0.007500000129459636  0.0051388890645281664  0.9997180962115848  1.0000
  Sn  Sn4       1.0  0.00083333336595785  0.0029166667933937405  0.9990242221762703  1.0000
  Sn  Sn5       1.0  0.0041666667477087424  0.004027777928960954  0.9993711591939276  1.0000
  Sn  Sn6       1.0  0.007500000570291319  0.008472222471229805  0.9991976906826663  1.0000
