data_image0
_chemical_formula_structural       HCo6Rh12Sn6
_chemical_formula_sum              "H1 Co6 Rh12 Sn6"
_cell_length_a       4.600757995365435
_cell_length_b       7.383583319604392
_cell_length_c       38.08641052246094
_cell_angle_alpha    92.18492443342896
_cell_angle_beta     93.0028254190475
_cell_angle_gamma    83.49957433655032

_space_group_name_H-M_alt    "P 1"
_space_group_IT_number       1

loop_
  _space_group_symop_operation_xyz
  'x, y, z'

loop_
  _atom_site_type_symbol
  _atom_site_label
  _atom_site_symmetry_multiplicity
  _atom_site_fract_x
  _atom_site_fract_y
  _atom_site_fract_z
  _atom_site_occupancy
  H   H1        1.0  0.009400444963182967  0.0010808384709549668  0.00033133700972271907  1.0000
  Co  Co1       1.0  0.0005995549331335743  0.009861111756923363  0.9988625988517777  1.0000
  Co  Co2       1.0  0.00393288852639072  0.0009722222563757547  0.9979315700214068  1.0000
  Co  Co3       1.0  0.007266221890372195  0.0054166667208607015  0.9983970846643753  1.0000
  Co  Co4       1.0  0.0008564579410042643  0.0030563721117614104  0.00015044211394670017  1.0000
  Co  Co5       1.0  0.003932888525431579  0.004305555715879576  0.9993281133829058  1.0000
  Co  Co6       1.0  0.007421646867209974  0.00875775032961896  0.9997957580694533  1.0000
  Rh  Rh1       1.0  0.0022662218853453132  0.004583333340107587  0.9980479488884055  1.0000
  Rh  Rh2       1.0  0.005599555440666833  0.00902777786810117  0.9985134631418081  1.0000
  Rh  Rh3       1.0  0.008932888329190775  0.00013888890737695817  0.9975824343109674  1.0000
  Rh  Rh4       1.0  0.005599555446829581  0.007361111106594941  0.9978151916564829  1.0000
  Rh  Rh5       1.0  0.00893288831734485  0.0018055557006375039  0.9982807057964913  1.0000
  Rh  Rh6       1.0  0.002266221879182566  0.006250000101613816  0.9987462203737306  1.0000
  Rh  Rh7       1.0  0.0022662216703134203  0.007916666863120043  0.9994444918577732  1.0000
  Rh  Rh8       1.0  0.005854956846671612  0.0023657667671250658  0.9999263803627966  1.0000
  Rh  Rh9       1.0  0.00893288833391481  0.003472222335126462  0.9989789776722677  1.0000
  Rh  Rh10      1.0  0.0055995554032824465  0.0006944444416218384  0.9992117349072436  1.0000
  Rh  Rh11      1.0  0.008800185261599421  0.0052338157073953916  0.9996809780931252  1.0000
  Rh  Rh12      1.0  0.0025786047260129927  0.009642614616807633  8.758643479972271e-05  1.0000
  Sn  Sn1       1.0  0.0005995550302271543  0.008194444487348055  0.9981643273632728  1.0000
  Sn  Sn2       1.0  0.0039328885315943266  0.002638888954373348  0.9986298418975806  1.0000
  Sn  Sn3       1.0  0.007266221851069527  0.0037500002133890134  0.99769881318064  1.0000
  Sn  Sn4       1.0  0.0006435699016505299  0.0015382637330991023  0.9995344947505  1.0000
  Sn  Sn5       1.0  0.003860971874366626  0.005991107913157223  5.940001129817227e-05  1.0000
  Sn  Sn6       1.0  0.007266221884209448  0.007083333482366929  0.9990953561497005  1.0000
