data_image0
_chemical_formula_structural       Ga2Cu6Ga2Cu6Ga2Cu6Ga2Cu6H
_chemical_formula_sum              "Ga8 Cu24 H1"
_cell_length_a       5.306069073448245
_cell_length_b       8.599615097045898
_cell_length_c       107.14248657226562
_cell_angle_alpha    90.0
_cell_angle_beta     120.00000187426255
_cell_angle_gamma    90.0

_space_group_name_H-M_alt    "P 1"
_space_group_IT_number       1

loop_
  _space_group_symop_operation_xyz
  'x, y, z'

loop_
  _atom_site_type_symbol
  _atom_site_label
  _atom_site_symmetry_multiplicity
  _atom_site_fract_x
  _atom_site_fract_y
  _atom_site_fract_z
  _atom_site_occupancy
  Ga  Ga1       1.0  0.006283922327329584  0.00375  0.9992907605481706  1.0000
  Ga  Ga2       1.0  0.002950588896713052  0.0012499998917018303  0.9994558389084552  1.0000
  Cu  Cu1       1.0  0.002924254334653998  0.0012499998917018303  0.9997028043239032  1.0000
  Cu  Cu2       1.0  0.007963756729014042  0.0012499998917018303  0.999457143063461  1.0000
  Cu  Cu3       1.0  0.007963756729014042  0.0012499998917018303  0.9997028042976155  1.0000
  Cu  Cu4       1.0  0.006310257294735303  0.00375  0.9995390301529565  1.0000
  Cu  Cu5       1.0  0.0012707549003752587  0.00375  0.9992894564032018  1.0000
  Cu  Cu6       1.0  0.0012707549003752587  0.00375  0.9995390299010883  1.0000
  Ga  Ga3       1.0  0.006283922327329584  0.00375  0.9997859955583676  1.0000
  Ga  Ga4       1.0  0.002930279812812597  0.0012500002165963392  0.9999488178132565  1.0000
  Cu  Cu7       1.0  0.0027185940031470984  0.0012500001082981695  0.0001781467029785915  1.0000
  Cu  Cu8       1.0  0.007939408365608008  0.0012500001082981695  0.9999497101358189  1.0000
  Cu  Cu9       1.0  0.007769403542696117  0.0012500002165963392  0.00017847005364232506  1.0000
  Cu  Cu10      1.0  0.006265058304285867  0.00375  3.080304963698587e-05  1.0000
  Cu  Cu11      1.0  0.0012707549003752587  0.00375  0.9997846911352428  1.0000
  Cu  Cu12      1.0  0.0012449807300790208  0.00375  3.082789253141902e-05  1.0000
  Ga  Ga5       1.0  0.006283922327329584  0.008749999999999999  0.9992907605481706  1.0000
  Ga  Ga6       1.0  0.002950588896713052  0.0062499999999999995  0.9994558389084552  1.0000
  Cu  Cu13      1.0  0.002924254334653998  0.0062499999999999995  0.9997028043239032  1.0000
  Cu  Cu14      1.0  0.007963756729014042  0.0062499999999999995  0.999457143063461  1.0000
  Cu  Cu15      1.0  0.007963756729014042  0.0062499999999999995  0.9997028042976155  1.0000
  Cu  Cu16      1.0  0.006310257294735303  0.008749999999999999  0.9995390301529565  1.0000
  Cu  Cu17      1.0  0.0012707549003752587  0.008749999999999999  0.9992894564032018  1.0000
  Cu  Cu18      1.0  0.0012707549003752587  0.008749999999999999  0.9995390299010883  1.0000
  Ga  Ga7       1.0  0.006283922327329584  0.008749999999999999  0.9997859955583676  1.0000
  Ga  Ga8       1.0  0.002930279812812597  0.006250000433192678  0.9999488178132565  1.0000
  Cu  Cu19      1.0  0.0027185940031470984  0.006250000433192678  0.0001781467029785915  1.0000
  Cu  Cu20      1.0  0.007939408365608008  0.006250000433192678  0.9999497101358189  1.0000
  Cu  Cu21      1.0  0.007769403542696117  0.006250000433192678  0.00017847005364232506  1.0000
  Cu  Cu22      1.0  0.006265058304285867  0.008749999999999999  3.080304963698587e-05  1.0000
  Cu  Cu23      1.0  0.0012707549003752587  0.008749999999999999  0.9997846911352428  1.0000
  Cu  Cu24      1.0  0.0012449807300790208  0.008749999999999999  3.082789253141902e-05  1.0000
  H   H1        1.0  0.008755019359097244  0.00375  0.0001708159180049352  1.0000
