data_image0
_chemical_formula_structural       Al4Sb4Al4Sb4Al4Sb4Al4Sb4H
_chemical_formula_sum              "Al16 Sb16 H1"
_cell_length_a       8.868927609806224
_cell_length_b       15.213596357378586
_cell_length_c       34.524288177490234
_cell_angle_alpha    81.61985736105215
_cell_angle_beta     120.00000128985987
_cell_angle_gamma    81.61985834838954

_space_group_name_H-M_alt    "P 1"
_space_group_IT_number       1

loop_
  _space_group_symop_operation_xyz
  'x, y, z'

loop_
  _atom_site_type_symbol
  _atom_site_label
  _atom_site_symmetry_multiplicity
  _atom_site_fract_x
  _atom_site_fract_y
  _atom_site_fract_z
  _atom_site_occupancy
  Al  Al1       1.0  0.0019015648918695824  0.0017490725149540635  0.9993099121732448  1.0000
  Al  Al2       1.0  0.004639085437884107  0.006341984758549188  1.1556683141266633e-05  1.0000
  Al  Al3       1.0  0.003984898061778642  0.004249072550791456  0.9994169494516102  1.0000
  Al  Al4       1.0  0.00043924991408633745  0.009021080758791392  0.9994770640651933  1.0000
  Sb  Sb1       1.0  0.0007301307200849109  0.004456197580337851  0.0003533807923971396  1.0000
  Sb  Sb2       1.0  0.004121860998750621  0.008212506743163896  0.9999794343345125  1.0000
  Sb  Sb3       1.0  0.00036091471602223276  0.0007509274568879846  0.9996740086712878  1.0000
  Sb  Sb4       1.0  0.0030467525432942145  0.006125363587760312  0.9991759496959437  1.0000
  Al  Al5       1.0  0.0019015648918695824  0.0017490725149540635  0.9980254647259956  1.0000
  Al  Al6       1.0  0.004401565065533112  0.00674907245863816  0.9986676884755431  1.0000
  Al  Al7       1.0  0.003984898061778642  0.004249072550791456  0.998132502004361  1.0000
  Al  Al8       1.0  0.0014848982819226282  0.009249072110503484  0.9987747256982155  1.0000
  Sb  Sb5       1.0  0.0009634193093898099  0.0036253636799136084  0.9990689124011386  1.0000
  Sb  Sb6       1.0  0.0034634196750393735  0.008625363239625636  0.9984266887527562  1.0000
  Sb  Sb7       1.0  0.0005467525481446355  0.0011253637720669055  0.9985337259611056  1.0000
  Sb  Sb8       1.0  0.0030467525432942145  0.006125363587760312  0.9978915022486945  1.0000
  Al  Al9       1.0  0.0069015650373751595  0.0017490725149540635  0.999309912278257  1.0000
  Al  Al10      1.0  0.00963908582589898  0.006341984758549188  1.1556819302516063e-05  1.0000
  Al  Al11      1.0  0.008984897964774925  0.004249072550791456  0.9994169495254733  1.0000
  Al  Al12      1.0  0.00543925030210121  0.009021080758791392  0.9994770642013546  1.0000
  Sb  Sb9       1.0  0.005730130865590489  0.004456197580337851  0.0003533808974093403  1.0000
  Sb  Sb10      1.0  0.009121861386765493  0.008212506743163896  0.9999794344706738  1.0000
  Sb  Sb11      1.0  0.005360914679645838  0.0007509274568879846  0.9996740087529382  1.0000
  Sb  Sb12      1.0  0.008046752446290497  0.006125363587760312  0.9991759497698068  1.0000
  Al  Al13      1.0  0.0069015650373751595  0.0017490725149540635  0.9980254646152009  1.0000
  Al  Al14      1.0  0.009401565453547985  0.00674907245863816  0.9986676886117044  1.0000
  Al  Al15      1.0  0.008984897964774925  0.004249072550791456  0.9981325018624172  1.0000
  Al  Al16      1.0  0.00648489818491891  0.009249072110503484  0.9987747257720786  1.0000
  Sb  Sb13      1.0  0.005963419454895387  0.0036253636799136084  0.9990689125061508  1.0000
  Sb  Sb14      1.0  0.008463420063054247  0.008625363239625636  0.9984266888889174  1.0000
  Sb  Sb15      1.0  0.0055467524511409174  0.0011253637720669055  0.9985337260349687  1.0000
  Sb  Sb16      1.0  0.008046752446290497  0.006125363587760312  0.9978915021067507  1.0000
  H   H1        1.0  0.0010843068195242767  0.007168935165462104  1.2168730400195339e-05  1.0000
