data_image0
_chemical_formula_structural       HAl9Ni15
_chemical_formula_sum              "H1 Al9 Ni15"
_cell_length_a       6.320256452688482
_cell_length_b       6.320256408480145
_cell_length_c       102.14208984375
_cell_angle_alpha    90.27018216117348
_cell_angle_beta     90.27018215928362
_cell_angle_gamma    64.09802853417604

_space_group_name_H-M_alt    "P 1"
_space_group_IT_number       1

loop_
  _space_group_symop_operation_xyz
  'x, y, z'

loop_
  _atom_site_type_symbol
  _atom_site_label
  _atom_site_symmetry_multiplicity
  _atom_site_fract_x
  _atom_site_fract_y
  _atom_site_fract_z
  _atom_site_occupancy
  H   H1        1.0  0.009894208187983667  0.0010629233702345736  5.789292276655006e-05  1.0000
  Al  Al1       1.0  0.0066254067410793215  0.0005637368467131628  0.9996094771863532  1.0000
  Al  Al2       1.0  0.004125406767289229  0.008063737224286167  0.9998717101399992  1.0000
  Al  Al3       1.0  0.009125406714869413  0.003063736775642358  0.9993472434718157  1.0000
  Al  Al4       1.0  0.006478318702752971  0.0004166487149438015  0.999331814977686  1.0000
  Al  Al5       1.0  0.003978318401339029  0.00791664923562953  0.9995940482230513  1.0000
  Al  Al6       1.0  0.0014783184275489365  0.005416649011986681  0.9998562816457297  1.0000
  Al  Al7       1.0  0.0067724947794056715  0.000710824978482524  0.9998871391032472  1.0000
  Al  Al8       1.0  0.0017724946680135623  0.005710825203969042  0.99936267214347  1.0000
  Al  Al9       1.0  0.009272494753195764  0.003210824907411719  0.9996249056804829  1.0000
  Ni  Ni1       1.0  0.0016254066296872121  0.00556373707219968  0.9996094771863865  1.0000
  Ni  Ni2       1.0  0.009125406714869413  0.003063736775642358  0.999871710139853  1.0000
  Ni  Ni3       1.0  0.004125406767289229  0.008063737224286167  0.9993472434719619  1.0000
  Ni  Ni4       1.0  0.0028754067803941834  0.0018137366644999896  2.827085811509692e-06  1.0000
  Ni  Ni5       1.0  0.007875407055598218  0.006813737263386618  0.9994783602405947  1.0000
  Ni  Ni6       1.0  0.005375406754184275  0.004313736593429185  0.9997405936630472  1.0000
  Ni  Ni7       1.0  0.007875407055598218  0.006813737263386618  2.8272004051708964e-06  1.0000
  Ni  Ni8       1.0  0.0028754067803941834  0.0018137366644999896  0.999478360126001  1.0000
  Ni  Ni9       1.0  0.00037540656088620353  0.009313737149407537  0.999740593663153  1.0000
  Ni  Ni10      1.0  0.003145020896950022  0.0015441225768035153  0.9997405936059147  1.0000
  Ni  Ni11      1.0  0.0006450209641129116  0.009044122936487431  2.8271431137852394e-06  1.0000
  Ni  Ni12      1.0  0.005645021198363965  0.004044122362619988  0.9994783601832042  1.0000
  Ni  Ni13      1.0  0.007605792283794678  0.007083351637308538  0.9997405937203838  1.0000
  Ni  Ni14      1.0  0.005105792310004586  0.00458335141366569  2.8271430621597675e-06  1.0000
  Ni  Ni15      1.0  0.00010579215765949546  0.009583351362327644  0.9994783601831922  1.0000
