data_image0
_chemical_formula_structural       Si12Os8H
_chemical_formula_sum              "Si12 Os8 H1"
_cell_length_a       5.67085599899292
_cell_length_b       5.67085599899292
_cell_length_c       105.90155029296875
_cell_angle_alpha    90.0
_cell_angle_beta     90.0
_cell_angle_gamma    90.0

_space_group_name_H-M_alt    "P 1"
_space_group_IT_number       1

loop_
  _space_group_symop_operation_xyz
  'x, y, z'

loop_
  _atom_site_type_symbol
  _atom_site_label
  _atom_site_symmetry_multiplicity
  _atom_site_fract_x
  _atom_site_fract_y
  _atom_site_fract_z
  _atom_site_occupancy
  Si  Si1       1.0  0.0016349445467754152  0.009110701054399413  0.9998661718021922  1.0000
  Si  Si2       1.0  0.008315273898863726  0.009157636568419125  0.9994411012250222  1.0000
  Si  Si3       1.0  0.001684726488718197  0.0025270893225032244  0.9994411012250222  1.0000
  Si  Si4       1.0  0.008365055183887995  0.00257402450806368  0.9998661718021922  1.0000
  Si  Si5       1.0  0.0035597169436921822  0.002902821421400131  0.9997299014819324  1.0000
  Si  Si6       1.0  0.0064402832796601125  0.008781904797981476  0.9997299014819324  1.0000
  Si  Si7       1.0  0.0020604584233854754  0.007282645949215512  0.9995760612753884  1.0000
  Si  Si8       1.0  0.007939541471507564  0.004402079941706838  0.9995760612753884  1.0000
  Si  Si9       1.0  0.0064402832796601125  0.002902821421400131  0.9993061406118252  1.0000
  Si  Si10      1.0  0.0019493565869419147  0.004379337422736923  0.0  1.0000
  Si  Si11      1.0  0.008050643472180753  0.007305387811266912  0.0  1.0000
  Si  Si12      1.0  0.0035597169436921822  0.008781904797981476  0.9993061406118252  1.0000
  Os  Os1       1.0  1.5000000021181353e-10  0.0008423631622442842  0.9996529816600758  1.0000
  Os  Os2       1.0  0.009999999894893039  0.0008423631622442842  4.6698626865968414e-05  1.0000
  Os  Os3       1.0  0.0049999999474465194  0.005842363273920432  0.9998750453911711  1.0000
  Os  Os4       1.0  0.0049999999474465194  0.005842363273920432  0.9994411012250222  1.0000
  Os  Os5       1.0  0.005000000275905777  0.0008423632443590985  0.9999439527550357  1.0000
  Os  Os6       1.0  1.5000000021181353e-10  0.005842363273920432  0.9993378209454324  1.0000
  Os  Os7       1.0  1.5000000021181353e-10  0.005842363273920432  0.9997615820969549  1.0000
  Os  Os8       1.0  0.0049999999474465194  0.0008423631622442842  0.999544380660366  1.0000
  H   H1        1.0  0.008805232631347757  0.005240591754930589  1.7558629669855933e-05  1.0000
