data_image0
_chemical_formula_structural       HIr8V8Ir8V8
_chemical_formula_sum              "H1 Ir16 V16"
_cell_length_a       8.140087127685547
_cell_length_b       5.264407761760125
_cell_length_c       101.48513793945312
_cell_angle_alpha    93.68817085397647
_cell_angle_beta     90.0
_cell_angle_gamma    90.0

_space_group_name_H-M_alt    "P 1"
_space_group_IT_number       1

loop_
  _space_group_symop_operation_xyz
  'x, y, z'

loop_
  _atom_site_type_symbol
  _atom_site_label
  _atom_site_symmetry_multiplicity
  _atom_site_fract_x
  _atom_site_fract_y
  _atom_site_fract_z
  _atom_site_occupancy
  H   H1        1.0  0.0012499982838219787  0.00010604005795750844  4.887090240080949e-05  1.0000
  Ir  Ir1       1.0  0.0012500040044153829  0.0038794365852082317  1.2945062932511806e-05  1.0000
  Ir  Ir2       1.0  0.0012500018305898893  0.001572034741948598  0.9995201848235851  1.0000
  Ir  Ir3       1.0  0.0012500018305898893  0.005230148261867276  0.9992932034236629  1.0000
  Ir  Ir4       1.0  0.0012500019450017573  0.007087690419280488  0.9998068381242231  1.0000
  Ir  Ir5       1.0  0.0037499983982338466  0.009893960017828166  0.9999271142026842  1.0000
  Ir  Ir6       1.0  0.003750001830589889  0.008123912997651533  0.9994214565924263  1.0000
  Ir  Ir7       1.0  0.003750001830589889  0.004465799300456424  0.999648437991757  1.0000
  Ir  Ir8       1.0  0.003750001830589889  0.0027991326266986996  0.999131364771941  1.0000
  V   V1        1.0  0.0012500018305898893  0.00010741855948754303  0.9992607165178021  1.0000
  V   V2        1.0  0.001250001372942417  0.001748694428575604  0.9997817933740558  1.0000
  V   V3        1.0  0.0012500018305898893  0.0051379138165154785  0.9990404653175262  1.0000
  V   V4        1.0  0.0012500018305898893  0.006804580667549634  0.9995575382442717  1.0000
  V   V5        1.0  0.003750001830589889  0.007921862539594194  0.9991638516785041  1.0000
  V   V6        1.0  0.003750001830589889  0.009588529036075488  0.9996809243104047  1.0000
  V   V7        1.0  0.003750001830589889  0.002891367249326928  0.9993841025850072  1.0000
  V   V8        1.0  0.003750001601766153  0.00449622950900022  0.9998987424411768  1.0000
  Ir  Ir9       1.0  0.006250004118827251  0.0038794365852082317  1.2945062932511806e-05  1.0000
  Ir  Ir10      1.0  0.006250001830589889  0.001572034741948598  0.9995201848235851  1.0000
  Ir  Ir11      1.0  0.006250001830589889  0.005230148261867276  0.9992932034236629  1.0000
  Ir  Ir12      1.0  0.006250002288237361  0.007087690419280488  0.9998068381242231  1.0000
  Ir  Ir13      1.0  0.008749998169410111  0.009893960017828166  0.9999271142026842  1.0000
  Ir  Ir14      1.0  0.008750001830589889  0.008123912997651533  0.9994214565924263  1.0000
  Ir  Ir15      1.0  0.008750001830589889  0.004465799300456424  0.999648437991757  1.0000
  Ir  Ir16      1.0  0.008750001830589889  0.0027991326266986996  0.999131364771941  1.0000
  V   V9        1.0  0.006250001830589889  0.00010741855948754303  0.9992607165178021  1.0000
  V   V10       1.0  0.006250001372942416  0.001748694428575604  0.9997817933740558  1.0000
  V   V11       1.0  0.006250001830589889  0.0051379138165154785  0.9990404653175262  1.0000
  V   V12       1.0  0.006250001830589889  0.006804580667549634  0.9995575382442717  1.0000
  V   V13       1.0  0.008750001830589889  0.007921862539594194  0.9991638516785041  1.0000
  V   V14       1.0  0.008750001830589889  0.009588529036075488  0.9996809243104047  1.0000
  V   V15       1.0  0.008750001830589889  0.002891367249326928  0.9993841025850072  1.0000
  V   V16       1.0  0.008750001830589889  0.00449622950900022  0.9998987424411768  1.0000
