data_image0
_chemical_formula_structural       HMn6Os6V12
_chemical_formula_sum              "H1 Mn6 Os6 V12"
_cell_length_a       5.920688152313232
_cell_length_b       7.251332242117724
_cell_length_c       101.88388061523438
_cell_angle_alpha    94.34775312640053
_cell_angle_beta     90.0
_cell_angle_gamma    114.09484328546705

_space_group_name_H-M_alt    "P 1"
_space_group_IT_number       1

loop_
  _space_group_symop_operation_xyz
  'x, y, z'

loop_
  _atom_site_type_symbol
  _atom_site_label
  _atom_site_symmetry_multiplicity
  _atom_site_fract_x
  _atom_site_fract_y
  _atom_site_fract_z
  _atom_site_occupancy
  H   H1        1.0  0.007689045254781807  0.0003115045071988756  8.256165943921426e-05  1.0000
  Mn  Mn1       1.0  0.0069472302440153335  0.0038286615379491515  0.999777649447118  1.0000
  Mn  Mn2       1.0  0.0027936186684075584  0.005521828737190539  0.9995174247970189  1.0000
  Mn  Mn3       1.0  0.0012032803724049623  0.0023390601425061597  1.2620573425404639e-05  1.0000
  Mn  Mn4       1.0  0.009876951867192377  0.009688495516801864  0.9996478177795625  1.0000
  Mn  Mn5       1.0  0.005710285472770899  0.0013551620987600375  0.999387031815237  1.0000
  Mn  Mn6       1.0  0.0039390802658860625  0.007809584333661577  0.9998919021202564  1.0000
  Os  Os1       1.0  0.0019465983118334593  0.003826830422686255  0.9997753796145806  1.0000
  Os  Os2       1.0  0.007793618791986149  0.005521828737190539  0.9995174247970189  1.0000
  Os  Os3       1.0  0.006183823787331079  0.0023012898959835723  2.1061114634663057e-05  1.0000
  Os  Os4       1.0  0.004876952009057059  0.009688495516801864  0.9996478177795625  1.0000
  Os  Os5       1.0  0.0007102853983484695  0.0013551620987600375  0.999387031815237  1.0000
  Os  Os6       1.0  0.008976219150633164  0.007885623195008835  0.9999010292701275  1.0000
  V   V1        1.0  0.0017519521046872966  0.00843849576528011  0.9994522283255526  1.0000
  V   V2        1.0  0.00012304793415916443  0.005075076708397278  0.999977065516379  1.0000
  V   V3        1.0  0.005918618830560884  0.006771829053435581  0.9997130142540758  1.0000
  V   V4        1.0  0.00675195218648315  0.00843849576528011  0.9994522283255526  1.0000
  V   V5        1.0  0.0050183387843814545  0.005075305421329112  0.9999770690905178  1.0000
  V   V6        1.0  0.0009186189060647489  0.006771829053435581  0.9997130142540758  1.0000
  V   V7        1.0  0.00883528520795164  0.002605162273824257  0.9995826212715322  1.0000
  V   V8        1.0  0.004668618796677487  0.004271828985668786  0.999321835343009  1.0000
  V   V9        1.0  0.0029501674643630862  0.0008776637105254807  0.9998525388358819  1.0000
  V   V10       1.0  0.0038352854407552226  0.002605162273824257  0.9995826212715322  1.0000
  V   V11       1.0  0.009668618563873905  0.004271828985668786  0.999321835343009  1.0000
  V   V12       1.0  0.007993499864016521  0.0008776571456172521  0.9998525317801572  1.0000
