data_image0
_chemical_formula_structural       Si8W4H
_chemical_formula_sum              "Si8 W4 H1"
_cell_length_a       4.5573063203404525
_cell_length_b       4.5803093910217285
_cell_length_c       101.68028259277344
_cell_angle_alpha    90.0
_cell_angle_beta     89.66633329124902
_cell_angle_gamma    90.0

_space_group_name_H-M_alt    "P 1"
_space_group_IT_number       1

loop_
  _space_group_symop_operation_xyz
  'x, y, z'

loop_
  _atom_site_type_symbol
  _atom_site_label
  _atom_site_symmetry_multiplicity
  _atom_site_fract_x
  _atom_site_fract_y
  _atom_site_fract_z
  _atom_site_occupancy
  Si  Si1       1.0  0.003756335241998652  0.0050000002439981655  0.9996050279679604  1.0000
  Si  Si2       1.0  0.006267955945029728  4.5000000727214015e-10  0.9997934812164134  1.0000
  Si  Si3       1.0  0.0012563354586219377  5.000000080801557e-11  0.9994102982093734  1.0000
  Si  Si4       1.0  0.008560731543081334  0.0050000002439981655  0.9999977655525532  1.0000
  Si  Si5       1.0  0.00880421121160775  0.0050000002439981655  0.9997336045668713  1.0000
  Si  Si6       1.0  0.0011957885349838792  0.010000000487996331  0.9999341897851008  1.0000
  Si  Si7       1.0  0.006304211326050239  5.000000080801557e-11  0.999538874808311  1.0000
  Si  Si8       1.0  0.00380421144049273  0.0050000002439981655  0.9993441453428491  1.0000
  W   W1        1.0  0.00878027311236071  0.0050000002439981655  0.9994745866194683  1.0000
  W   W2        1.0  0.0012802734556881816  5.000000080801557e-11  0.9996693164499014  1.0000
  W   W3        1.0  0.006153758688343095  0.010000000487996331  3.373501165893997e-05  1.0000
  W   W4        1.0  0.0037629508354014075  0.0050000002439981655  0.9998641849688723  1.0000
  H   H1        1.0  0.002479369583011848  0.0025000001219990828  4.6708755934682385e-05  1.0000
