data_image0
_chemical_formula_structural       HV20Si12
_chemical_formula_sum              "H1 V20 Si12"
_cell_length_a       7.1411804935149075
_cell_length_b       8.63596767309204
_cell_length_c       104.54386901855469
_cell_angle_alpha    91.47116872951001
_cell_angle_beta     65.5778950909003
_cell_angle_gamma    65.57789467817751

_space_group_name_H-M_alt    "P 1"
_space_group_IT_number       1

loop_
  _space_group_symop_operation_xyz
  'x, y, z'

loop_
  _atom_site_type_symbol
  _atom_site_label
  _atom_site_symmetry_multiplicity
  _atom_site_fract_x
  _atom_site_fract_y
  _atom_site_fract_z
  _atom_site_occupancy
  H   H1        1.0  0.009235680182494996  0.00043772014795556225  0.9998703630970396  1.0000
  V   V1        1.0  0.0026275026639834575  0.007463352480050068  0.9993959839729759  1.0000
  V   V2        1.0  0.0078119625845684375  0.002264791368094178  0.9997841752244613  1.0000
  V   V3        1.0  0.0012992664377941712  0.001239431219564957  0.9990840562458739  1.0000
  V   V4        1.0  0.006299266107344897  0.006239431068386544  0.9994970872378712  1.0000
  V   V5        1.0  0.0025405742909858915  0.009984489523987516  0.9996030601232222  1.0000
  V   V6        1.0  0.007575344922390215  0.004963352616598311  0.9991894685581691  1.0000
  V   V7        1.0  0.0026014237381988014  0.0008227645553366518  0.9993249912679028  1.0000
  V   V8        1.0  0.007416269194424626  0.005804660484417613  0.9997444796165234  1.0000
  V   V9        1.0  0.007627502799123464  1.550994982169267e-05  0.9991851595471096  1.0000
  V   V10       1.0  0.0026534361815029723  0.004930636145028654  0.9995922387663545  1.0000
  V   V11       1.0  0.007601423717327121  0.009156098144697943  0.9994626679535875  1.0000
  V   V12       1.0  0.0028998034156405487  0.0043701997245127475  0.9998637458810656  1.0000
  V   V13       1.0  0.0039035810392114957  0.003739431204934788  0.9992905719914401  1.0000
  V   V14       1.0  0.008887988752576608  0.008686612120402904  0.9996948994436012  1.0000
  V   V15       1.0  0.005101423423053932  0.008322764694323257  0.9991184756060112  1.0000
  V   V16       1.0  0.00010142369328864635  0.0033227644797474455  0.9995315062530787  1.0000
  V   V17       1.0  0.007575345055499041  0.0025155097932712646  0.9993916752401546  1.0000
  V   V18       1.0  0.0027014116194991594  0.007339747546641603  0.9997271213452068  1.0000
  V   V19       1.0  0.00010142369389671085  0.006656097793573887  0.9992561525247273  1.0000
  V   V20       1.0  0.005018102252590703  0.0017302056027585929  0.9996812657814677  1.0000
  Si  Si1       1.0  0.009375000048672883  0.0007158550221492175  0.9995403377092421  1.0000
  Si  Si2       1.0  0.004374999958852574  0.005715854870970804  0.9991273068966644  1.0000
  Si  Si3       1.0  0.00437500033084014  0.0017630074169806963  0.9994538366762168  1.0000
  Si  Si4       1.0  0.009438112862604733  0.006630824176642179  0.9998583357832493  1.0000
  Si  Si5       1.0  0.005827847162393864  0.008215855222094861  0.9993338225440792  1.0000
  Si  Si6       1.0  0.000679127785617339  0.0033312811887893238  0.9997675639886012  1.0000
  Si  Si7       1.0  0.000304271329916218  0.003739431204934788  0.9992905717548987  1.0000
  Si  Si8       1.0  0.005214801829030963  0.00874853674901821  0.9997135911989043  1.0000
  Si  Si9       1.0  0.000827847444561121  0.00926300761692634  0.9992473212259838  1.0000
  Si  Si10      1.0  0.005947826114590822  0.004189133827048088  0.9996481116850873  1.0000
  Si  Si11      1.0  0.004898576433552501  0.001239431219564957  0.999084056474325  1.0000
  Si  Si12      1.0  0.009898576962492385  0.006239431068386544  0.999497087442051  1.0000
