data_image0
_chemical_formula_structural       COPt4Pb8Pt4Pb8
_chemical_formula_sum              "C1 O1 Pt8 Pb16"
_cell_length_a       7.162718296051025
_cell_length_b       7.162718296051025
_cell_length_c       105.26705169677734
_cell_angle_alpha    90.0
_cell_angle_beta     90.0
_cell_angle_gamma    90.0

_space_group_name_H-M_alt    "P 1"
_space_group_IT_number       1

loop_
  _space_group_symop_operation_xyz
  'x, y, z'

loop_
  _atom_site_type_symbol
  _atom_site_label
  _atom_site_symmetry_multiplicity
  _atom_site_fract_x
  _atom_site_fract_y
  _atom_site_fract_z
  _atom_site_occupancy
  C   C1        1.0  0.005000002725295113  0.0050000001248226775  1.9275369498222256e-05  1.0000
  O   O1        1.0  0.005000002725295113  0.0050000001248226775  0.00013327081746247507  1.0000
  Pt  Pt1       1.0  1.000000017079314e-09  6.000000226476072e-10  0.999019174901122  1.0000
  Pt  Pt2       1.0  0.0050000011650116515  0.005000000644917164  0.999019174901122  1.0000
  Pt  Pt3       1.0  0.0050000011650116515  0.005000000644917164  0.9992983622814405  1.0000
  Pt  Pt4       1.0  1.000000017079314e-09  6.000000226476072e-10  0.9992983622814405  1.0000
  Pb  Pb1       1.0  0.00660920107312219  0.0016092006882522688  0.9994379555469325  1.0000
  Pb  Pb2       1.0  0.0016092010783231342  0.0033908004767593826  0.9994379555469325  1.0000
  Pb  Pb3       1.0  0.0033908009968538697  0.0016092006882522688  0.999158768732837  1.0000
  Pb  Pb4       1.0  0.008390800861629303  0.0033908004767593826  0.999158768732837  1.0000
  Pb  Pb5       1.0  0.0016092010783231342  0.006609200553027703  0.999158768732837  1.0000
  Pb  Pb6       1.0  0.00660920107312219  0.008390800341534816  0.999158768732837  1.0000
  Pb  Pb7       1.0  0.008390800861629303  0.006609200553027703  0.9994379555469325  1.0000
  Pb  Pb8       1.0  0.0033908009968538697  0.008390800341534816  0.9994379555469325  1.0000
  Pt  Pt5       1.0  1.000000017079314e-09  6.000000226476072e-10  0.9995775493786475  1.0000
  Pt  Pt6       1.0  0.0050000011650116515  0.005000000644917164  0.9995775493786475  1.0000
  Pt  Pt7       1.0  0.005000002725295113  0.0050000001248226775  0.9998547365755822  1.0000
  Pt  Pt8       1.0  0.00999999920945638  0.00999999920945638  0.999854736009359  1.0000
  Pb  Pb9       1.0  0.006704519309868402  0.0017045177547858846  0.0  1.0000
  Pb  Pb10      1.0  0.0017045189249984807  0.003295479119446248  0.0  1.0000
  Pb  Pb11      1.0  0.003396171232480472  0.0016038318828855062  0.9997247623094745  1.0000
  Pb  Pb12      1.0  0.008396168236736227  0.0033961691521025234  0.9997247623094745  1.0000
  Pb  Pb13      1.0  0.0016038338332398329  0.006603831617637318  0.9997247623094745  1.0000
  Pb  Pb14      1.0  0.006603830057353857  0.008396168236736227  0.9997247623094745  1.0000
  Pb  Pb15      1.0  0.008295484185166553  0.006704518789773914  0.0  1.0000
  Pb  Pb16      1.0  0.0032954783393045178  0.008295485745450014  0.0  1.0000
