data_image0
_chemical_formula_structural       HAl12Fe18Si24
_chemical_formula_sum              "H1 Al12 Fe18 Si24"
_cell_length_a       12.516766276026988
_cell_length_b       6.40784395824953
_cell_length_c       104.75926208496094
_cell_angle_alpha    86.65748202110127
_cell_angle_beta     89.66158948765852
_cell_angle_gamma    99.69850124906954

_space_group_name_H-M_alt    "P 1"
_space_group_IT_number       1

loop_
  _space_group_symop_operation_xyz
  'x, y, z'

loop_
  _atom_site_type_symbol
  _atom_site_label
  _atom_site_symmetry_multiplicity
  _atom_site_fract_x
  _atom_site_fract_y
  _atom_site_fract_z
  _atom_site_occupancy
  H   H1        1.0  0.0035354624450748004  0.007459497727007239  7.605789291404042e-05  1.0000
  Al  Al1       1.0  0.003921522534957354  0.0008705216259543329  0.9997498763963693  1.0000
  Al  Al2       1.0  0.005632225221129033  0.00011403099882786196  0.9994686976186667  1.0000
  Al  Al3       1.0  0.007298892274327479  0.009280697803090631  0.9991921964277992  1.0000
  Al  Al4       1.0  0.004367774984215975  0.001958665452907806  0.9993160150815055  1.0000
  Al  Al5       1.0  0.0012027560656837704  0.003690048191872544  0.9998807748396695  1.0000
  Al  Al6       1.0  0.0027011082329954812  0.002791998757294569  0.9995925162177204  1.0000
  Al  Al7       1.0  0.007566830668235366  0.003992800307836789  0.9999804203759658  1.0000
  Al  Al8       1.0  0.009176307928841354  0.0031107538416554723  0.9997104420412575  1.0000
  Al  Al9       1.0  0.0008242916272452567  0.002322794649952103  0.9994368334670513  1.0000
  Al  Al10      1.0  0.005920329702717635  0.0012368292343200974  0.9999054610912683  1.0000
  Al  Al11      1.0  0.007509041751384769  0.0005832352267804669  0.9996243797999912  1.0000
  Al  Al12      1.0  0.009175708804583215  0.009749902031043237  0.9993478788936077  1.0000
  Fe  Fe1       1.0  0.0056082306569641  0.009017301389395035  0.9997058667665283  1.0000
  Fe  Fe2       1.0  0.0072538142134615565  0.00820520840927683  0.9994331987736705  1.0000
  Fe  Fe3       1.0  0.0040215309893737  0.009885968963312298  0.9999737857844054  1.0000
  Fe  Fe4       1.0  0.002746186293861404  0.003867488296697063  0.9993515138713299  1.0000
  Fe  Fe5       1.0  0.009369293583023585  0.005115051119239766  0.9999011847814536  1.0000
  Fe  Fe6       1.0  0.0010795194671464222  0.004700821503310927  0.9996280150079468  1.0000
  Fe  Fe7       1.0  0.0022532207241120145  0.007545165635152139  0.9992265454163491  1.0000
  Fe  Fe8       1.0  0.008980167209009406  0.009189773818126497  0.9997756220301071  1.0000
  Fe  Fe9       1.0  0.0005865539351442772  0.008378499145432663  0.9995030465518564  1.0000
  Fe  Fe10      1.0  0.006166076944794062  0.005331813274291829  0.9998262683939485  1.0000
  Fe  Fe11      1.0  0.007746779934199922  0.004527530829601476  0.999558167229405  1.0000
  Fe  Fe12      1.0  0.009413446383442462  0.0036941974616976746  0.9992816658091458  1.0000
  Fe  Fe13      1.0  0.004418463191486993  0.004945451802069793  0.9996968335388747  1.0000
  Fe  Fe14      1.0  0.006085129942707487  0.0041121184248886855  0.9994203324029194  1.0000
  Fe  Fe15      1.0  0.0030942768838843845  0.005363571840970169  0.9999425084672267  1.0000
  Fe  Fe16      1.0  0.003914870564615473  0.007960578135496514  0.9993643799581163  1.0000
  Fe  Fe17      1.0  0.0007964166463882432  0.00977107762119952  0.9998898700337576  1.0000
  Fe  Fe18      1.0  0.0022482038133949805  0.008793911658266316  0.9996408808090687  1.0000
  Si  Si1       1.0  0.0012226690203456412  0.004100572243279153  0.9992115566961831  1.0000
  Si  Si2       1.0  0.007997225349264317  0.0057855353514034615  0.9997651770865629  1.0000
  Si  Si3       1.0  0.009556002323481179  0.004933905685033203  0.9994880577671498  1.0000
  Si  Si4       1.0  0.007191097016423039  0.008709928361526042  0.9998544660164698  1.0000
  Si  Si5       1.0  0.008777331637966295  0.007972123930297078  0.9995731559506095  1.0000
  Si  Si6       1.0  0.000443997730874852  0.007138790725480682  0.999296654879224  1.0000
  Si  Si7       1.0  0.009327373607586908  0.001563895775698449  0.9999363515558596  1.0000
  Si  Si8       1.0  0.0007577957045902272  0.0010009983241702517  0.9996813892691239  1.0000
  Si  Si9       1.0  0.0024244623048217443  0.00016766496982638325  0.9994048881331936  1.0000
  Si  Si10      1.0  0.004496850930424511  0.0034704640205730007  0.9999317103569187  1.0000
  Si  Si11      1.0  0.005908871451280722  0.002738364959004604  0.9996563257023645  1.0000
  Si  Si12      1.0  0.007575537900523263  0.0019050315547036302  0.9993798245667189  1.0000
  Si  Si13      1.0  0.003766016270417478  0.005595532448753472  0.999182323349684  1.0000
  Si  Si14      1.0  0.00047152792840438057  0.0071839554424187385  0.9997456920782007  1.0000
  Si  Si15      1.0  0.002099349519196985  0.006428865971523272  0.9994588242006363  1.0000
  Si  Si16      1.0  0.004781949221494074  0.007270466369051886  0.9998901191299894  1.0000
  Si  Si17      1.0  0.006233983934927529  0.006477163866128826  0.9996023890124404  1.0000
  Si  Si18      1.0  0.007900650988125976  0.00564383073445062  0.9993258881598802  1.0000
  Si  Si19      1.0  0.004378852441454544  0.004889618294716915  0.9994733629658028  1.0000
  Si  Si20      1.0  0.00604551949465299  0.004056285017450018  0.9991968621137619  1.0000
  Si  Si21      1.0  0.0027045942664813477  0.005757610614146008  0.9997394816742549  1.0000
  Si  Si22      1.0  0.003954481314647923  0.00801641135167201  0.9995878508167106  1.0000
  Si  Si23      1.0  0.005621148065868416  0.007183078411256977  0.9993113493947137  1.0000
  Si  Si24      1.0  0.002382832530197602  0.008436883664945655  0.9998939229187859  1.0000
