data_image0
_chemical_formula_structural       COCa24Zn48
_chemical_formula_sum              "C1 O1 Ca24 Zn48"
_cell_length_a       13.379310605397453
_cell_length_b       10.643095386705278
_cell_length_c       103.15467834472656
_cell_angle_alpha    92.38426651175023
_cell_angle_beta     94.02192825519037
_cell_angle_gamma    77.37963495264403

_space_group_name_H-M_alt    "P 1"
_space_group_IT_number       1

loop_
  _space_group_symop_operation_xyz
  'x, y, z'

loop_
  _atom_site_type_symbol
  _atom_site_label
  _atom_site_symmetry_multiplicity
  _atom_site_fract_x
  _atom_site_fract_y
  _atom_site_fract_z
  _atom_site_occupancy
  C   C1        1.0  0.0071972701914010725  0.0021966517506541642  0.00014082278445492582  1.0000
  O   O1        1.0  0.0071972701914010725  0.0021966517506541642  0.00025715317791117693  1.0000
  Ca  Ca1       1.0  0.009182045232435872  0.007206670389884628  0.9992260191932079  1.0000
  Ca  Ca2       1.0  0.005848711678013156  0.0010955587899522182  0.9994045789034848  1.0000
  Ca  Ca3       1.0  0.0025153784094818837  0.003317781006260491  0.9990474594492745  1.0000
  Ca  Ca4       1.0  0.009737600920136806  0.0021140773425891587  0.9993748190796408  1.0000
  Ca  Ca5       1.0  0.00640426736571409  0.006002966099985921  0.9995533787307804  1.0000
  Ca  Ca6       1.0  0.0030709340971828173  0.008225188491455555  0.9991962592773221  1.0000
  Ca  Ca7       1.0  0.008460856621882557  0.009773380255171417  0.9994432113819754  1.0000
  Ca  Ca8       1.0  0.005127523067459841  0.001995601841436799  0.9990860922720401  1.0000
  Ca  Ca9       1.0  0.0017941897989285683  0.005884491221869998  0.9992646519284548  1.0000
  Ca  Ca10      1.0  0.007905300934181623  0.004865972419653636  0.9992944118413333  1.0000
  Ca  Ca11      1.0  0.0045719676656503505  0.008754861449764118  0.9994729714962443  1.0000
  Ca  Ca12      1.0  0.0012386342541733564  0.0009770833475477173  0.9991158521000374  1.0000
  Ca  Ca13      1.0  0.009182045232435872  0.008873337028525477  0.9997616983015772  1.0000
  Ca  Ca14      1.0  0.005786430798937863  0.0029352766596740607  0.999952003873904  1.0000
  Ca  Ca15      1.0  0.0025153784094818837  0.00498444764490134  0.9995831382687348  1.0000
  Ca  Ca16      1.0  0.00981855737183482  0.0038066231203628845  0.9999288290639654  1.0000
  Ca  Ca17      1.0  0.006440080986779062  0.007464721350150877  9.062614138423237e-05  1.0000
  Ca  Ca18      1.0  0.0030709340971828173  0.009891855130096404  0.9997319383856915  1.0000
  Ca  Ca19      1.0  0.008441651006524508  0.00136795916898642  0.9999928732506359  1.0000
  Ca  Ca20      1.0  0.005127523067459841  0.0036622688304003667  0.9996217713819132  1.0000
  Ca  Ca21      1.0  0.0018615884207250565  0.0074506310652669595  0.999819795046631  1.0000
  Ca  Ca22      1.0  0.007891513533451366  0.006538515995940515  0.9998246754014904  1.0000
  Ca  Ca23      1.0  0.0044647635205702415  0.00046183916038536603  1.9121683149425764e-05  1.0000
  Ca  Ca24      1.0  0.0012386342541733564  0.0026437499861885665  0.9996515309194977  1.0000
  Zn  Zn1       1.0  0.00048811739846672895  0.007378914143004518  0.9995131750706898  1.0000
  Zn  Zn2       1.0  0.0071547844358392995  0.009601136479458339  0.9991560557064508  1.0000
  Zn  Zn3       1.0  0.003821450881416584  0.0034900247043645693  0.9993346154159759  1.0000
  Zn  Zn4       1.0  0.008821450927159214  0.002656691386639613  0.9990667759055505  1.0000
  Zn  Zn5       1.0  0.005488117372736499  0.006545580844681814  0.9992453355596975  1.0000
  Zn  Zn6       1.0  0.002154784104205226  0.00043446925472108276  0.999423895272618  1.0000
  Zn  Zn7       1.0  0.0002115669044492887  0.00492316466750946  0.9994385121781115  1.0000
  Zn  Zn8       1.0  0.006878233638062201  0.007145386736100123  0.9990813928099596  1.0000
  Zn  Zn9       1.0  0.0035449003695309286  0.0010342755840427908  0.9992599525247595  1.0000
  Zn  Zn10      1.0  0.005768349880516588  0.003997033985986747  0.9993198011888685  1.0000
  Zn  Zn11      1.0  0.0024350166119853156  0.007885923016097229  0.9994983608437795  1.0000
  Zn  Zn12      1.0  0.009101683434939304  0.00010814505342862486  0.999141241536977  1.0000
  Zn  Zn13      1.0  0.007431334661833512  0.0028883775183337693  0.9994979662764654  1.0000
  Zn  Zn14      1.0  0.004098001393302239  0.005110599909803401  0.9991408471119161  1.0000
  Zn  Zn15      1.0  0.0007646679103523843  0.008999488998120633  0.9993194067651264  1.0000
  Zn  Zn16      1.0  0.0002115669044492887  0.0040916722940742755  0.9991712642665219  1.0000
  Zn  Zn17      1.0  0.006878233638062201  0.007980561001305788  0.9993498240067392  1.0000
  Zn  Zn18      1.0  0.0035449003695309286  0.0018694498492484559  0.9995283837215393  1.0000
  Zn  Zn19      1.0  0.0018745517393708578  0.0029830154615468917  0.9993494296419494  1.0000
  Zn  Zn20      1.0  0.008541218419379125  0.006871904533652811  0.9995279890943362  1.0000
  Zn  Zn21      1.0  0.0052078854367392955  0.009094126847513442  0.9991708699320545  1.0000
  Zn  Zn22      1.0  0.007431334661833512  0.002056885144898585  0.9992307186537848  1.0000
  Zn  Zn23      1.0  0.004098001393302239  0.005945774175009066  0.9994092783086957  1.0000
  Zn  Zn24      1.0  0.0007646679103523843  0.00816799662468545  0.9990521588535367  1.0000
  Zn  Zn25      1.0  0.0004657984252943794  0.0090234364803077  3.0301951669441104e-05  1.0000
  Zn  Zn26      1.0  0.0071547844358392995  0.0012678025856086553  0.9996917345842964  1.0000
  Zn  Zn27      1.0  0.0038315099718386407  0.005192954741795455  0.9998649434930083  1.0000
  Zn  Zn28      1.0  0.008821450927159214  0.004323358375603182  0.9996024550154236  1.0000
  Zn  Zn29      1.0  0.005488117372736499  0.008212247483322662  0.9997810146680669  1.0000
  Zn  Zn30      1.0  0.0021301386894154407  0.0020463087584531776  0.9999451143149861  1.0000
  Zn  Zn31      1.0  0.0001814430055418844  0.006608843266252449  0.9999688733167732  1.0000
  Zn  Zn32      1.0  0.006878233638062201  0.008812053374740973  0.9996170716294198  1.0000
  Zn  Zn33      1.0  0.0035449003695309286  0.00270094222268364  0.9997956313442198  1.0000
  Zn  Zn34      1.0  0.005730251415039137  0.005721951688896096  0.999859834387101  1.0000
  Zn  Zn35      1.0  0.0023321074140534386  0.009573428174579802  1.6149615198926036e-05  1.0000
  Zn  Zn36      1.0  0.009101683434939304  0.0017748118672308332  0.9996769203571891  1.0000
  Zn  Zn37      1.0  0.0074717465608677425  0.004532501253675035  1.4691954697876686e-05  1.0000
  Zn  Zn38      1.0  0.004098001393302239  0.006777266548444251  0.9996765259313763  1.0000
  Zn  Zn39      1.0  0.00070950830123085  0.0007294510216543789  0.999855224184582  1.0000
  Zn  Zn40      1.0  0.0002115669044492887  0.005758338932715125  0.9997069433748912  1.0000
  Zn  Zn41      1.0  0.006836627284579105  0.009652474261558668  0.9998947536561412  1.0000
  Zn  Zn42      1.0  0.0035134600298695716  0.0034841257760902054  4.3700693841107675e-05  1.0000
  Zn  Zn43      1.0  0.0018720321780836735  0.004637451771615402  0.9998881133936739  1.0000
  Zn  Zn44      1.0  0.008620753990605414  0.008375617269231498  4.685670184551519e-05  1.0000
  Zn  Zn45      1.0  0.0052078854367392955  0.0007607933039864777  0.9997065488114038  1.0000
  Zn  Zn46      1.0  0.007431334661833512  0.003723551783539434  0.999766397473245  1.0000
  Zn  Zn47      1.0  0.00410649093970221  0.007659449041522003  0.9999431340268861  1.0000
  Zn  Zn48      1.0  0.0007646679103523843  0.009834663263326299  0.9995878379619061  1.0000
