data_image0
_chemical_formula_structural       COZn6Cu2Zn6Cu2
_chemical_formula_sum              "C1 O1 Zn12 Cu4"
_cell_length_a       5.503360748291016
_cell_length_b       5.503360856141455
_cell_length_c       100.68301391601562
_cell_angle_alpha    90.0
_cell_angle_beta     90.0
_cell_angle_gamma    119.99999935173

_space_group_name_H-M_alt    "P 1"
_space_group_IT_number       1

loop_
  _space_group_symop_operation_xyz
  'x, y, z'

loop_
  _atom_site_type_symbol
  _atom_site_label
  _atom_site_symmetry_multiplicity
  _atom_site_fract_x
  _atom_site_fract_y
  _atom_site_fract_z
  _atom_site_occupancy
  C   C1        1.0  0.005820721295816687  0.006641442429174522  0.00019864304959321723  1.0000
  O   O1        1.0  0.005820721295816687  0.006641442429174522  0.00031782923455093856  1.0000
  Zn  Zn1       1.0  0.001691891389238573  0.0033837827723285697  0.9993469671312933  1.0000
  Zn  Zn2       1.0  0.006616217300891089  0.00830810844969331  0.9993469671312933  1.0000
  Zn  Zn3       1.0  0.0016918911488022223  0.00830810844969331  0.9993469671312933  1.0000
  Zn  Zn4       1.0  0.008308108987334802  0.0066162176497519  0.9995646448528627  1.0000
  Zn  Zn5       1.0  0.003383782779496562  0.0016918913861642848  0.9995646448528627  1.0000
  Zn  Zn6       1.0  0.008308109270041369  0.0016918913861642848  0.9995646448528627  1.0000
  Cu  Cu1       1.0  0.0033333331695402264  0.006666666426966648  0.9995646448528627  1.0000
  Cu  Cu2       1.0  0.006666666769200514  0.003333333213483324  0.9993469671312933  1.0000
  Zn  Zn7       1.0  0.001691891389238573  0.0033837827723285697  0.9997823225744321  1.0000
  Zn  Zn8       1.0  0.006616217300891089  0.00830810844969331  0.9997823225744321  1.0000
  Zn  Zn9       1.0  0.0016918911488022223  0.00830810844969331  0.9997823225744321  1.0000
  Zn  Zn10      1.0  0.008308108987334802  0.0066162176497519  0.0  1.0000
  Zn  Zn11      1.0  0.003383782779496562  0.0016918913861642848  0.0  1.0000
  Zn  Zn12      1.0  0.008308109270041369  0.0016918913861642848  0.0  1.0000
  Cu  Cu3       1.0  0.0033333331695402264  0.006666666426966648  0.0  1.0000
  Cu  Cu4       1.0  0.006666666769200514  0.003333333213483324  0.9997823225744321  1.0000
