data_image0
_chemical_formula_structural       HNi8Sb16
_chemical_formula_sum              "H1 Ni8 Sb16"
_cell_length_a       6.557482032644334
_cell_length_b       10.172519979965928
_cell_length_c       33.27247619628906
_cell_angle_alpha    96.28146152576721
_cell_angle_beta     101.41234615962611
_cell_angle_gamma    62.22324460597121

_space_group_name_H-M_alt    "P 1"
_space_group_IT_number       1

loop_
  _space_group_symop_operation_xyz
  'x, y, z'

loop_
  _atom_site_type_symbol
  _atom_site_label
  _atom_site_symmetry_multiplicity
  _atom_site_fract_x
  _atom_site_fract_y
  _atom_site_fract_z
  _atom_site_occupancy
  H   H1        1.0  0.0031364921672349835  0.0024647231283051385  0.0003240536283096919  1.0000
  Ni  Ni1       1.0  0.007822590329920814  0.0075655386237948145  0.9999478970603294  1.0000
  Ni  Ni2       1.0  0.005148319349483832  0.00507785516336597  0.9992738310292064  1.0000
  Ni  Ni3       1.0  0.00014831919575285495  7.785520295346372e-05  0.9978940301533658  1.0000
  Ni  Ni4       1.0  0.0026483194651056854  0.0025778551799254448  0.9985839305986842  1.0000
  Ni  Ni5       1.0  0.007648319226626619  0.007577855560793354  0.9985839306558671  1.0000
  Ni  Ni6       1.0  0.005148319349483832  0.00507785516336597  0.9978940299878526  1.0000
  Ni  Ni7       1.0  0.00014831919575285495  7.785520295346372e-05  0.9992738314186458  1.0000
  Ni  Ni8       1.0  0.0026308060415803983  0.0024265491931376266  0.9999431577967454  1.0000
  Sb  Sb1       1.0  0.007521126688192736  0.008813596396170877  0.9993168009883656  1.0000
  Sb  Sb2       1.0  0.005021126514036419  0.006313596412730352  0.9986269005465431  1.0000
  Sb  Sb3       1.0  0.009851681067305582  0.0012641729352998287  1.497655412914143e-05  1.0000
  Sb  Sb4       1.0  0.002521126339880103  0.0038135964292898257  0.9979369998807944  1.0000
  Sb  Sb5       1.0  0.0002755121898658408  0.008842114294869498  0.9985409609223441  1.0000
  Sb  Sb6       1.0  0.00777551235908756  0.006342113897442115  0.9978510600949109  1.0000
  Sb  Sb7       1.0  0.002775512226299716  0.001342114034057778  0.9992308615297665  1.0000
  Sb  Sb8       1.0  0.004962784591235965  0.003875067681883437  0.9999049042284565  1.0000
  Sb  Sb9       1.0  0.0011011573847969597  0.005233565556335809  0.9989249461002244  1.0000
  Sb  Sb10      1.0  0.008601156967226981  0.0027335655728952827  0.9982350454876827  1.0000
  Sb  Sb11      1.0  0.003639865246553107  0.007741972370901278  0.9996795094547806  1.0000
  Sb  Sb12      1.0  0.006391227481115518  0.0001832476991098938  0.00025536716499441857  1.0000
  Sb  Sb13      1.0  0.00419548132634066  0.009922144737277183  0.9982429151311704  1.0000
  Sb  Sb14      1.0  0.0019999060798920644  0.006818726203373025  0.0003062951391525872  1.0000
  Sb  Sb15      1.0  0.006695481429792557  0.002422144786955607  0.9989328159755186  1.0000
  Sb  Sb16      1.0  0.009185210645467403  0.004899250883163132  0.9996565792860053  1.0000
