data_image0
_chemical_formula_structural       COAu16Ca8Na8
_chemical_formula_sum              "C1 O1 Au16 Ca8 Na8"
_cell_length_a       5.156439304351807
_cell_length_b       12.630645751953125
_cell_length_c       105.72486114501953
_cell_angle_alpha    90.0
_cell_angle_beta     90.0
_cell_angle_gamma    90.0

_space_group_name_H-M_alt    "P 1"
_space_group_IT_number       1

loop_
  _space_group_symop_operation_xyz
  'x, y, z'

loop_
  _atom_site_type_symbol
  _atom_site_label
  _atom_site_symmetry_multiplicity
  _atom_site_fract_x
  _atom_site_fract_y
  _atom_site_fract_z
  _atom_site_occupancy
  C   C1        1.0  0.009999993960284401  0.0011122807465812183  0.00014351250028053262  1.0000
  O   O1        1.0  0.009999993960284401  0.0011122807465812183  0.00025701488929984765  1.0000
  Au  Au1       1.0  0.005000000231185285  0.006243446655711424  0.9995646033541309  1.0000
  Au  Au2       1.0  0.005000001676093323  0.0030250904627666226  0.9998421902589841  1.0000
  Au  Au3       1.0  0.005000000231185285  0.002910113766755269  0.99900142962936  1.0000
  Au  Au4       1.0  0.005000000231185285  0.009576780429489394  0.9992830164917454  1.0000
  Au  Au5       1.0  6.3500001238797686e-09  0.00454735826372043  0.9997159782092732  1.0000
  Au  Au6       1.0  0.009999993960284401  0.0011122807465812183  0.9999796867554835  1.0000
  Au  Au7       1.0  1.5000000131572152e-10  0.0012434470273365865  0.9991422230605527  1.0000
  Au  Au8       1.0  1.5000000131572152e-10  0.007910113542600409  0.9994238099229381  1.0000
  Au  Au9       1.0  1.5000000131572152e-10  0.006243446655711424  0.9991422230605527  1.0000
  Au  Au10      1.0  1.5000000131572152e-10  0.002910113766755269  0.9994238099229381  1.0000
  Au  Au11      1.0  2.0500000359238673e-09  0.009589885820327883  0.999701880543586  1.0000
  Au  Au12      1.0  8.65000022300046e-09  0.006231016678858174  0.9999688961723734  1.0000
  Au  Au13      1.0  0.005000000231185285  0.004576780358703649  0.9992830164917454  1.0000
  Au  Au14      1.0  0.005000000231185285  0.0012434470273365865  0.9995646033541309  1.0000
  Au  Au15      1.0  0.004999977835110701  0.00793988543714105  0.9998468904204987  1.0000
  Au  Au16      1.0  0.005000000231185285  0.007910113542600409  0.99900142962936  1.0000
  Ca  Ca1       1.0  0.005000000231185285  0.0054101138021481416  0.99900142962936  1.0000
  Ca  Ca2       1.0  0.005000000231185285  0.0020767803233107764  0.9992830164917454  1.0000
  Ca  Ca3       1.0  0.005000000231185285  0.008743446986044902  0.9995646033541309  1.0000
  Ca  Ca4       1.0  0.0050000070944984645  0.005477041724213904  0.9998426497326118  1.0000
  Ca  Ca5       1.0  1.5000000131572152e-10  0.008743446986044902  0.9991422230605527  1.0000
  Ca  Ca6       1.0  1.5000000131572152e-10  0.0054101138021481416  0.9994238099229381  1.0000
  Ca  Ca7       1.0  0.009999999739916552  0.0020767500918987734  0.9997072397537764  1.0000
  Ca  Ca8       1.0  0.009999978788750006  0.00867481135787672  0.9999684846193081  1.0000
  Na  Na1       1.0  2.0500000359238673e-09  0.0036224531359670712  0.0  1.0000
  Na  Na2       1.0  1.5000000131572152e-10  0.0037434469152591568  0.9991422230605527  1.0000
  Na  Na3       1.0  1.5000000131572152e-10  0.0004101136944948208  0.9994238099229381  1.0000
  Na  Na4       1.0  0.009999997572554495  0.0070659811438478085  0.9996975710755978  1.0000
  Na  Na5       1.0  0.005000000231185285  0.0070767800991559165  0.9992830164917454  1.0000
  Na  Na6       1.0  0.005000000231185285  0.0037434469152591568  0.9995646033541309  1.0000
  Na  Na7       1.0  0.004999995896461173  0.0005064719698807409  0.999854716693996  1.0000
  Na  Na8       1.0  0.005000000231185285  0.0004101136944948208  0.99900142962936  1.0000
