data_image0
_chemical_formula_structural       COAl4Au8Mn4Al4Au8Mn4Al4Au8Mn4Al4Au8Mn4
_chemical_formula_sum              "C1 O1 Al16 Au32 Mn16"
_cell_length_a       8.927765846252441
_cell_length_b       8.927765846252441
_cell_length_c       107.87730407714844
_cell_angle_alpha    90.0
_cell_angle_beta     90.0
_cell_angle_gamma    90.0

_space_group_name_H-M_alt    "P 1"
_space_group_IT_number       1

loop_
  _space_group_symop_operation_xyz
  'x, y, z'

loop_
  _atom_site_type_symbol
  _atom_site_label
  _atom_site_symmetry_multiplicity
  _atom_site_fract_x
  _atom_site_fract_y
  _atom_site_fract_z
  _atom_site_occupancy
  C   C1        1.0  0.005000000216980484  0.005000000634250646  0.00016055476960816833  1.0000
  O   O1        1.0  0.005000000216980484  0.005000000634250646  0.00027179248009186056  1.0000
  Al  Al1       1.0  0.0012499999499275807  0.0012499999499275807  0.9995652520397542  1.0000
  Al  Al2       1.0  0.0037499935907303163  0.0037499931734601543  0.9998630815932085  1.0000
  Al  Al3       1.0  0.0012499999499275807  0.0012499999499275807  0.9989800610253659  1.0000
  Al  Al4       1.0  0.003749999849782742  0.003749999849782742  0.99927265653256  1.0000
  Au  Au1       1.0  0.0012500021405959297  0.003749999849782742  0.9999999950272969  1.0000
  Au  Au2       1.0  0.003749998597972257  0.001250001723325768  0.0  1.0000
  Au  Au3       1.0  0.003749999849782742  0.0012499999499275807  0.9997115500696125  1.0000
  Au  Au4       1.0  0.0012499999499275807  0.003749999849782742  0.9997115500696125  1.0000
  Au  Au5       1.0  0.0012499999499275807  0.003749999849782742  0.9994189545624184  1.0000
  Au  Au6       1.0  0.003749999849782742  0.0012499999499275807  0.9994189545624184  1.0000
  Au  Au7       1.0  0.003749999849782742  0.0012499999499275807  0.9991263587789629  1.0000
  Au  Au8       1.0  0.0012499999499275807  0.003749999849782742  0.9991263587789629  1.0000
  Mn  Mn1       1.0  0.0012500062089800064  0.001250001931960849  0.999862518020192  1.0000
  Mn  Mn2       1.0  0.003749999849782742  0.003749999849782742  0.9995652520397542  1.0000
  Mn  Mn3       1.0  0.0012499999499275807  0.0012499999499275807  0.99927265653256  1.0000
  Mn  Mn4       1.0  0.003749999849782742  0.003749999849782742  0.9989800610253659  1.0000
  Al  Al5       1.0  0.0012499999499275807  0.006250000166908065  0.9995652520397542  1.0000
  Al  Al6       1.0  0.0037499935907303163  0.00874999339044064  0.9998630815932085  1.0000
  Al  Al7       1.0  0.0012499999499275807  0.006250000166908065  0.9989800610253659  1.0000
  Al  Al8       1.0  0.003749999849782742  0.008750000066763226  0.99927265653256  1.0000
  Au  Au9       1.0  0.0012500021405959297  0.008750000066763226  0.9999999950272969  1.0000
  Au  Au10      1.0  0.003749998597972257  0.006250001835988712  0.0  1.0000
  Au  Au11      1.0  0.003749999849782742  0.006250000166908065  0.9997115500696125  1.0000
  Au  Au12      1.0  0.0012499999499275807  0.008750000066763226  0.9997115500696125  1.0000
  Au  Au13      1.0  0.0012499999499275807  0.008750000066763226  0.9994189545624184  1.0000
  Au  Au14      1.0  0.003749999849782742  0.006250000166908065  0.9994189545624184  1.0000
  Au  Au15      1.0  0.003749999849782742  0.006250000166908065  0.9991263587789629  1.0000
  Au  Au16      1.0  0.0012499999499275807  0.008750000066763226  0.9991263587789629  1.0000
  Mn  Mn5       1.0  0.0012500062089800064  0.006250001835988712  0.999862518020192  1.0000
  Mn  Mn6       1.0  0.003749999849782742  0.008750000066763226  0.9995652520397542  1.0000
  Mn  Mn7       1.0  0.0012499999499275807  0.006250000166908065  0.99927265653256  1.0000
  Mn  Mn8       1.0  0.003749999849782742  0.008750000066763226  0.9989800610253659  1.0000
  Al  Al9       1.0  0.006250000166908065  0.0012499999499275807  0.9995652520397542  1.0000
  Al  Al10      1.0  0.00874999339044064  0.0037499931734601543  0.9998630815932085  1.0000
  Al  Al11      1.0  0.006250000166908065  0.0012499999499275807  0.9989800610253659  1.0000
  Al  Al12      1.0  0.008750000066763226  0.003749999849782742  0.99927265653256  1.0000
  Au  Au17      1.0  0.006250002253258873  0.003749999849782742  0.9999999950272969  1.0000
  Au  Au18      1.0  0.00874999839768258  0.001250001723325768  0.0  1.0000
  Au  Au19      1.0  0.008750000066763226  0.0012499999499275807  0.9997115500696125  1.0000
  Au  Au20      1.0  0.006250000166908065  0.003749999849782742  0.9997115500696125  1.0000
  Au  Au21      1.0  0.006250000166908065  0.003749999849782742  0.9994189545624184  1.0000
  Au  Au22      1.0  0.008750000066763226  0.0012499999499275807  0.9994189545624184  1.0000
  Au  Au23      1.0  0.008750000066763226  0.0012499999499275807  0.9991263587789629  1.0000
  Au  Au24      1.0  0.006250000166908065  0.003749999849782742  0.9991263587789629  1.0000
  Mn  Mn9       1.0  0.0062500060086903295  0.001250001931960849  0.999862518020192  1.0000
  Mn  Mn10      1.0  0.008750000066763226  0.003749999849782742  0.9995652520397542  1.0000
  Mn  Mn11      1.0  0.006250000166908065  0.0012499999499275807  0.99927265653256  1.0000
  Mn  Mn12      1.0  0.008750000066763226  0.003749999849782742  0.9989800610253659  1.0000
  Al  Al13      1.0  0.006250000166908065  0.006250000166908065  0.9995652520397542  1.0000
  Al  Al14      1.0  0.00874999339044064  0.00874999339044064  0.9998630815932085  1.0000
  Al  Al15      1.0  0.006250000166908065  0.006250000166908065  0.9989800610253659  1.0000
  Al  Al16      1.0  0.008750000066763226  0.008750000066763226  0.99927265653256  1.0000
  Au  Au25      1.0  0.006250002253258873  0.008750000066763226  0.9999999950272969  1.0000
  Au  Au26      1.0  0.00874999839768258  0.006250001835988712  0.0  1.0000
  Au  Au27      1.0  0.008750000066763226  0.006250000166908065  0.9997115500696125  1.0000
  Au  Au28      1.0  0.006250000166908065  0.008750000066763226  0.9997115500696125  1.0000
  Au  Au29      1.0  0.006250000166908065  0.008750000066763226  0.9994189545624184  1.0000
  Au  Au30      1.0  0.008750000066763226  0.006250000166908065  0.9994189545624184  1.0000
  Au  Au31      1.0  0.008750000066763226  0.006250000166908065  0.9991263587789629  1.0000
  Au  Au32      1.0  0.006250000166908065  0.008750000066763226  0.9991263587789629  1.0000
  Mn  Mn13      1.0  0.0062500060086903295  0.006250001835988712  0.999862518020192  1.0000
  Mn  Mn14      1.0  0.008750000066763226  0.008750000066763226  0.9995652520397542  1.0000
  Mn  Mn15      1.0  0.006250000166908065  0.006250000166908065  0.99927265653256  1.0000
  Mn  Mn16      1.0  0.008750000066763226  0.008750000066763226  0.9989800610253659  1.0000
