data_image0
_chemical_formula_structural       HNb18
_chemical_formula_sum              "H1 Nb18"
_cell_length_a       5.496869605813144
_cell_length_b       7.178880333981827
_cell_length_c       99.47132873535156
_cell_angle_alpha    96.36015696200027
_cell_angle_beta     89.34638306273331
_cell_angle_gamma    76.31585786319552

_space_group_name_H-M_alt    "P 1"
_space_group_IT_number       1

loop_
  _space_group_symop_operation_xyz
  'x, y, z'

loop_
  _atom_site_type_symbol
  _atom_site_label
  _atom_site_symmetry_multiplicity
  _atom_site_fract_x
  _atom_site_fract_y
  _atom_site_fract_z
  _atom_site_occupancy
  H   H1        1.0  0.006520688379091952  0.002003877999082238  0.00023365483663118547  1.0000
  Nb  Nb1       1.0  0.005083333742429324  0.008333333476737188  0.9993160697969781  1.0000
  Nb  Nb2       1.0  0.0014166667147008376  0.0016666667491238827  0.999414829606502  1.0000
  Nb  Nb3       1.0  0.007750000120545134  0.004999999978489422  0.9995135893420048  1.0000
  Nb  Nb4       1.0  0.006916666691657156  0.0016666667491238827  0.9992666899577547  1.0000
  Nb  Nb5       1.0  0.003250000185609646  0.004999999978489422  0.9993654495508887  1.0000
  Nb  Nb6       1.0  0.009583332999609475  0.008333333476737188  0.9994642095885216  1.0000
  Nb  Nb7       1.0  0.0040833335309696595  0.008333333476737188  0.9996123492369484  1.0000
  Nb  Nb8       1.0  0.00041666667268000664  0.0016666667491238827  0.9997111093459726  1.0000
  Nb  Nb9       1.0  0.006749999909085469  0.004999999978489422  0.9998098690815824  1.0000
  Nb  Nb10      1.0  0.005916666480197491  0.0016666667491238827  0.999562969397725  1.0000
  Nb  Nb11      1.0  0.002249999974149981  0.004999999978489422  0.9996617292904662  1.0000
  Nb  Nb12      1.0  0.008583333465905146  0.008333333476737188  0.9997604890280646  1.0000
  Nb  Nb13      1.0  0.003083333319509994  0.008333333476737188  0.9999086286769188  1.0000
  Nb  Nb14      1.0  0.009416666881428651  0.0016666667491238827  7.388628384362511e-06  1.0000
  Nb  Nb15      1.0  0.00575000037538114  0.004999999978489422  0.00010614852112550549  1.0000
  Nb  Nb16      1.0  0.0049166666076154945  0.0016666667491238827  0.9998592491370889  1.0000
  Nb  Nb17      1.0  0.0012500001015679845  0.004999999978489422  0.99995800902983  1.0000
  Nb  Nb18      1.0  0.0075833332544454814  0.008333333476737188  5.6768767642122505e-05  1.0000
