data_image0
_chemical_formula_structural       COV4Ga10V4Ga10V4Ga10
_chemical_formula_sum              "C1 O1 V12 Ga30"
_cell_length_a       12.810596466064453
_cell_length_b       9.454105360667727
_cell_length_c       37.52360534667969
_cell_angle_alpha    106.63439374437695
_cell_angle_beta     90.0
_cell_angle_gamma    47.35023942975494

_space_group_name_H-M_alt    "P 1"
_space_group_IT_number       1

loop_
  _space_group_symop_operation_xyz
  'x, y, z'

loop_
  _atom_site_type_symbol
  _atom_site_label
  _atom_site_symmetry_multiplicity
  _atom_site_fract_x
  _atom_site_fract_y
  _atom_site_fract_z
  _atom_site_occupancy
  C   C1        1.0  0.007899392348936387  0.009111739914712284  0.00047451536137423653  1.0000
  O   O1        1.0  0.007899392348936387  0.009111739914712284  0.0007943139096615085  1.0000
  V   V1        1.0  0.006812880306222774  0.0012848172277263765  0.00027453545161613345  1.0000
  V   V2        1.0  0.008364644467124482  0.0045669964539074405  0.9999013830737165  1.0000
  V   V3        1.0  0.001978555101933062  0.004568128238042553  0.999901515930672  1.0000
  V   V4        1.0  0.0033092010086032157  0.00829357863043409  0.00013242742342655013  1.0000
  Ga  Ga1       1.0  0.005701124708216047  0.007172397556250765  0.0004014298083658145  1.0000
  Ga  Ga2       1.0  0.007205126240947215  0.008154059191607698  0.9998624898821052  1.0000
  Ga  Ga3       1.0  0.007919772751099093  0.00264675484291013  0.00015839447439074087  1.0000
  Ga  Ga4       1.0  0.002039112386904406  0.007170577745069487  0.0004013116604197364  1.0000
  Ga  Ga5       1.0  0.000666035770873924  0.0013441378960393018  9.620685146582736e-05  1.0000
  Ga  Ga6       1.0  0.00955143834200087  0.008152409206206203  0.9998619408031487  1.0000
  Ga  Ga7       1.0  0.004342194957678113  0.002649224295858581  0.0001598632036618923  1.0000
  Ga  Ga8       1.0  0.002898825372193901  0.0013487245006824297  9.727589292480965e-05  1.0000
  Ga  Ga9       1.0  0.004898819742934577  0.005113557171527722  0.00036880092479361497  1.0000
  Ga  Ga10      1.0  0.009840013635102484  0.0052303298429808515  0.00029284184474004783  1.0000
  V   V5        1.0  0.00701121529798627  0.0008882600736558135  0.999653987068584  1.0000
  V   V6        1.0  0.008365361864725028  0.004591077400523223  0.9991992649369391  1.0000
  V   V7        1.0  0.001954609666984022  0.004591077400523223  0.9991992649369391  1.0000
  V   V8        1.0  0.00336536187054098  0.008180325191150315  0.9994581371407028  1.0000
  Ga  Ga11      1.0  0.005751813050719414  0.00691632238095706  0.9996983668263709  1.0000
  Ga  Ga12      1.0  0.007226289615562078  0.008140184076442557  0.9990946204847083  1.0000
  Ga  Ga13      1.0  0.00809368154683406  0.002272792223685919  0.9993926820005458  1.0000
  Ga  Ga14      1.0  0.0022432790330989233  0.006916047286457621  0.9996984494408516  1.0000
  Ga  Ga15      1.0  0.0007753964121624031  0.00104197108810085  0.9993039098125013  1.0000
  Ga  Ga16      1.0  0.009544575519393304  0.008140184076442557  0.9990946204847083  1.0000
  Ga  Ga17      1.0  0.004544575161712295  0.002272792223685919  0.9993926820005458  1.0000
  Ga  Ga18      1.0  0.0030936817343984917  0.00104197108810085  0.9993039098125013  1.0000
  Ga  Ga19      1.0  0.005159985765854525  0.004591077400523223  0.9995598868377954  1.0000
  Ga  Ga20      1.0  0.00015998591706926105  0.004591077400523223  0.9995598868377954  1.0000
  V   V9        1.0  0.0069546094794195904  0.0010018299733930926  0.9989403927593925  1.0000
  V   V10       1.0  0.008365361864725028  0.004591077400523223  0.9984780215323409  1.0000
  V   V11       1.0  0.001954609666984022  0.004591077400523223  0.9984780215323409  1.0000
  V   V12       1.0  0.00336536187054098  0.008180325191150315  0.9987368937361045  1.0000
  Ga  Ga21      1.0  0.005775396151898579  0.0069093630135568795  0.9990058479047929  1.0000
  Ga  Ga22      1.0  0.007226289615562078  0.008140184076442557  0.9983733766829958  1.0000
  Ga  Ga23      1.0  0.00809368154683406  0.002272792223685919  0.9986714385959475  1.0000
  Ga  Ga24      1.0  0.0022262897667768146  0.0069093630135568795  0.9990058479047929  1.0000
  Ga  Ga25      1.0  0.0007753964121624031  0.00104197108810085  0.998582666407903  1.0000
  Ga  Ga26      1.0  0.009544575519393304  0.008140184076442557  0.9983733766829958  1.0000
  Ga  Ga27      1.0  0.004544575161712295  0.002272792223685919  0.9986714385959475  1.0000
  Ga  Ga28      1.0  0.0030936817343984917  0.00104197108810085  0.998582666407903  1.0000
  Ga  Ga29      1.0  0.005159985765854525  0.004591077400523223  0.9988386434331972  1.0000
  Ga  Ga30      1.0  0.00015998591706926105  0.004591077400523223  0.9988386434331972  1.0000
