data_image0
_chemical_formula_structural       COSn3Pt9Sn3Pt9Sn3Pt9Sn3Pt9
_chemical_formula_sum              "C1 O1 Sn12 Pt36"
_cell_length_a       9.125933250459257
_cell_length_b       8.162483215332031
_cell_length_c       104.63047790527344
_cell_angle_alpha    90.0
_cell_angle_beta     108.43494929627535
_cell_angle_gamma    90.0

_space_group_name_H-M_alt    "P 1"
_space_group_IT_number       1

loop_
  _space_group_symop_operation_xyz
  'x, y, z'

loop_
  _atom_site_type_symbol
  _atom_site_label
  _atom_site_symmetry_multiplicity
  _atom_site_fract_x
  _atom_site_fract_y
  _atom_site_fract_z
  _atom_site_occupancy
  C   C1        1.0  0.0007329905843423836  0.0024999998813381354  0.00010830766155300653  1.0000
  O   O1        1.0  0.0007329905843423836  0.0024999998813381354  0.00022299722963047642  1.0000
  Sn  Sn1       1.0  0.007600342774091219  0.0012499999406690677  0.9997959057065885  1.0000
  Sn  Sn2       1.0  0.004267009280116164  0.0012499999406690677  0.9999797827437328  1.0000
  Sn  Sn3       1.0  0.000933676001286272  0.0012499999406690677  0.9996120285253658  1.0000
  Pt  Pt1       1.0  0.007600342774091219  0.0012499999406690677  7.17213373112077e-05  1.0000
  Pt  Pt2       1.0  0.004267009280116164  0.0012499999406690677  0.9997039671130101  1.0000
  Pt  Pt3       1.0  0.000933676001286272  0.0012499999406690677  0.9998878441560884  1.0000
  Pt  Pt4       1.0  0.009267009521078746  0.0037499997079092568  0.9999797825339051  1.0000
  Pt  Pt5       1.0  0.005933676027103691  0.0037499997079092568  0.9996120283096039  1.0000
  Pt  Pt6       1.0  0.002600342748273799  0.0037499997079092568  0.9997959053526823  1.0000
  Pt  Pt7       1.0  0.005933676027103691  0.0037499997079092568  0.9998878439403266  1.0000
  Pt  Pt8       1.0  0.002600342748273799  0.0037499997079092568  7.172155307299776e-05  1.0000
  Pt  Pt9       1.0  0.009267009521078746  0.0037499997079092568  0.9997039669031824  1.0000
  Sn  Sn4       1.0  0.007600342774091219  0.0012499999406690677  0.9992442741603091  1.0000
  Sn  Sn5       1.0  0.004267009280116164  0.0012499999406690677  0.9994281511974534  1.0000
  Sn  Sn6       1.0  0.000933676001286272  0.0012499999406690677  0.9990603969790864  1.0000
  Pt  Pt10      1.0  0.007600342774091219  0.0012499999406690677  0.9995200897910318  1.0000
  Pt  Pt11      1.0  0.004267009280116164  0.0012499999406690677  0.9991523355667308  1.0000
  Pt  Pt12      1.0  0.000933676001286272  0.0012499999406690677  0.9993362126098091  1.0000
  Pt  Pt13      1.0  0.009267009521078746  0.0037499997079092568  0.9994281512724598  1.0000
  Pt  Pt14      1.0  0.005933676027103691  0.0037499997079092568  0.9990603967633246  1.0000
  Pt  Pt15      1.0  0.002600342748273799  0.0037499997079092568  0.999244274091237  1.0000
  Pt  Pt16      1.0  0.005933676027103691  0.0037499997079092568  0.9993362126788813  1.0000
  Pt  Pt17      1.0  0.002600342748273799  0.0037499997079092568  0.9995200897219596  1.0000
  Pt  Pt18      1.0  0.009267009521078746  0.0037499997079092568  0.9991523353569031  1.0000
  Sn  Sn7       1.0  0.007600342774091219  0.006249999817443286  0.9997959057065885  1.0000
  Sn  Sn8       1.0  0.004267009280116164  0.006249999817443286  0.9999797827437328  1.0000
  Sn  Sn9       1.0  0.000933676001286272  0.006249999817443286  0.9996120285253658  1.0000
  Pt  Pt19      1.0  0.007600342774091219  0.006249999817443286  7.17213373112077e-05  1.0000
  Pt  Pt20      1.0  0.004267009280116164  0.006249999817443286  0.9997039671130101  1.0000
  Pt  Pt21      1.0  0.000933676001286272  0.006249999817443286  0.9998878441560884  1.0000
  Pt  Pt22      1.0  0.009267009521078746  0.008749999926977314  0.9999797825339051  1.0000
  Pt  Pt23      1.0  0.005933676027103691  0.008749999926977314  0.9996120283096039  1.0000
  Pt  Pt24      1.0  0.002600342748273799  0.008749999926977314  0.9997959053526823  1.0000
  Pt  Pt25      1.0  0.005933676027103691  0.008749999926977314  0.9998878439403266  1.0000
  Pt  Pt26      1.0  0.002600342748273799  0.008749999926977314  7.172155307299776e-05  1.0000
  Pt  Pt27      1.0  0.009267009521078746  0.008749999926977314  0.9997039669031824  1.0000
  Sn  Sn10      1.0  0.007600342774091219  0.006249999817443286  0.9992442741603091  1.0000
  Sn  Sn11      1.0  0.004267009280116164  0.006249999817443286  0.9994281511974534  1.0000
  Sn  Sn12      1.0  0.000933676001286272  0.006249999817443286  0.9990603969790864  1.0000
  Pt  Pt28      1.0  0.007600342774091219  0.006249999817443286  0.9995200897910318  1.0000
  Pt  Pt29      1.0  0.004267009280116164  0.006249999817443286  0.9991523355667308  1.0000
  Pt  Pt30      1.0  0.000933676001286272  0.006249999817443286  0.9993362126098091  1.0000
  Pt  Pt31      1.0  0.009267009521078746  0.008749999926977314  0.9994281512724598  1.0000
  Pt  Pt32      1.0  0.005933676027103691  0.008749999926977314  0.9990603967633246  1.0000
  Pt  Pt33      1.0  0.002600342748273799  0.008749999926977314  0.999244274091237  1.0000
  Pt  Pt34      1.0  0.005933676027103691  0.008749999926977314  0.9993362126788813  1.0000
  Pt  Pt35      1.0  0.002600342748273799  0.008749999926977314  0.9995200897219596  1.0000
  Pt  Pt36      1.0  0.009267009521078746  0.008749999926977314  0.9991523353569031  1.0000
