data_image0
_chemical_formula_structural       CORh12Pb24
_chemical_formula_sum              "C1 O1 Rh12 Pb24"
_cell_length_a       6.848553657531738
_cell_length_b       13.768176076367972
_cell_length_c       106.3467025756836
_cell_angle_alpha    78.74059545653694
_cell_angle_beta     90.0
_cell_angle_gamma    90.0

_space_group_name_H-M_alt    "P 1"
_space_group_IT_number       1

loop_
  _space_group_symop_operation_xyz
  'x, y, z'

loop_
  _atom_site_type_symbol
  _atom_site_label
  _atom_site_symmetry_multiplicity
  _atom_site_fract_x
  _atom_site_fract_y
  _atom_site_fract_z
  _atom_site_occupancy
  C   C1        1.0  0.0017980536968759107  0.008842042261613262  0.9998346432953166  1.0000
  O   O1        1.0  0.0017980536968759107  0.008842042261613262  0.9999474814409611  1.0000
  Rh  Rh1       1.0  2.018040010461867e-05  0.002500000011035295  0.99918855943157  1.0000
  Rh  Rh2       1.0  2.018040010461867e-05  0.00583333308319998  0.9994733724996555  1.0000
  Rh  Rh3       1.0  4.5505302307172106e-05  0.009375168398601778  0.9997198301778135  1.0000
  Rh  Rh4       1.0  2.018040010461867e-05  0.0008333332680411713  0.9990461529027576  1.0000
  Rh  Rh5       1.0  2.018040010461867e-05  0.004166666685058825  0.9993309659621259  1.0000
  Rh  Rh6       1.0  0.009979820306524135  0.0075130925829822405  0.9996075285583556  1.0000
  Rh  Rh7       1.0  0.005020180585558544  0.00916666643124704  0.9993309659012848  1.0000
  Rh  Rh8       1.0  0.0050600033739002055  0.002513124563267165  0.9996075048377422  1.0000
  Rh  Rh9       1.0  0.005020180585558544  0.00583333308319998  0.9990461528401731  1.0000
  Rh  Rh10      1.0  0.005020180585558544  0.0008333332680411713  0.99947337256224  1.0000
  Rh  Rh11      1.0  0.004995006991491289  0.0043751592724128084  0.9997198472900077  1.0000
  Rh  Rh12      1.0  0.005020180585558544  0.007499999757223511  0.9991885593707289  1.0000
  Pb  Pb1       1.0  0.0016761406717429564  0.0005519867665934112  0.9993078414517718  1.0000
  Pb  Pb2       1.0  0.0014892241928140017  0.00380971241164878  0.9996173367097104  1.0000
  Pb  Pb3       1.0  0.0016761406717429564  0.007218653255775751  0.9990230282602607  1.0000
  Pb  Pb4       1.0  0.0035506022019350728  0.008809812579021541  0.9996173273847042  1.0000
  Pb  Pb5       1.0  0.0033642202926720483  0.0022186533716463475  0.9990230283245887  1.0000
  Pb  Pb6       1.0  0.0033642202926720483  0.00555198658175222  0.9993078413891873  1.0000
  Pb  Pb7       1.0  0.0033642202926720483  0.00944801238093005  0.9990692773662183  1.0000
  Pb  Pb8       1.0  0.0033642202926720483  0.002781346512483055  0.9993540905420383  1.0000
  Pb  Pb9       1.0  0.003048514680599936  0.006156586117429382  0.9996565904879389  1.0000
  Pb  Pb10      1.0  0.0016761406717429564  0.007781346258671271  0.9993540904811973  1.0000
  Pb  Pb11      1.0  0.0019918835445854742  0.0011564604309369218  0.9996566066232454  1.0000
  Pb  Pb12      1.0  0.0016761406717429564  0.004448013186506585  0.9990692774131117  1.0000
  Pb  Pb13      1.0  0.006676140606468614  0.007218653255775751  0.9994502479197431  1.0000
  Pb  Pb14      1.0  0.00676696495822651  0.0006059254953426112  0.9997337867521934  1.0000
  Pb  Pb15      1.0  0.006676140606468614  0.00388531990772869  0.9991654348586314  1.0000
  Pb  Pb16      1.0  0.008364220499374133  0.00888531992979928  0.9991654347908165  1.0000
  Pb  Pb17      1.0  0.008364220499374133  0.0022186533716463475  0.999450247984071  1.0000
  Pb  Pb18      1.0  0.008273887337042169  0.00560579964607955  0.9997337803381092  1.0000
  Pb  Pb19      1.0  0.008364220499374133  0.00944801238093005  0.9994964970257006  1.0000
  Pb  Pb20      1.0  0.0076031434260765115  0.0028705254902425393  0.9998010769706527  1.0000
  Pb  Pb21      1.0  0.008364220499374133  0.00611467958464774  0.9992116839506414  1.0000
  Pb  Pb22      1.0  0.006676140606468614  0.0011146798384595253  0.9992116840114824  1.0000
  Pb  Pb23      1.0  0.006676140606468614  0.004448013186506585  0.9994964970725941  1.0000
  Pb  Pb24      1.0  0.007437535348232176  0.007870657659970815  0.9998010438572181  1.0000
