data_image0
_chemical_formula_structural       COV12Ga10
_chemical_formula_sum              "C1 O1 V12 Ga10"
_cell_length_a       8.528865637291245
_cell_length_b       5.149955749511719
_cell_length_c       35.88453674316406
_cell_angle_alpha    90.0
_cell_angle_beta     59.99999931381359
_cell_angle_gamma    90.0

_space_group_name_H-M_alt    "P 1"
_space_group_IT_number       1

loop_
  _space_group_symop_operation_xyz
  'x, y, z'

loop_
  _atom_site_type_symbol
  _atom_site_label
  _atom_site_symmetry_multiplicity
  _atom_site_fract_x
  _atom_site_fract_y
  _atom_site_fract_z
  _atom_site_occupancy
  C   C1        1.0  0.007203769614895119  0.006249715718122931  0.9990289824650791  1.0000
  O   O1        1.0  0.007203769614895119  0.006249715718122931  0.9993633886050669  1.0000
  V   V1        1.0  0.008565777643906583  0.0037496736183640364  0.9983816204281644  1.0000
  V   V2        1.0  0.001714680679718882  0.008749490896730073  0.9980028729424134  1.0000
  V   V3        1.0  0.009853406604409783  0.001722497710409676  0.9988290786703911  1.0000
  V   V4        1.0  0.008578506610775173  0.003749491330748206  0.9972574816696667  1.0000
  V   V5        1.0  0.007010418736548591  0.008749490896730073  0.9980028729730654  1.0000
  V   V6        1.0  0.001714680679718882  0.008749490896730073  0.9968847864097229  1.0000
  V   V7        1.0  0.00514659345611308  0.0012494912764959391  0.9976301771208897  1.0000
  V   V8        1.0  0.009853343055403306  0.005776672121406562  0.9988290521716584  1.0000
  V   V9        1.0  0.0032827681756775686  0.003749491330748206  0.9972574816839671  1.0000
  V   V10       1.0  0.0053928317342063084  0.0017238021157400206  0.9988292148248505  1.0000
  V   V11       1.0  0.00514659345611308  0.006249491475420916  0.9976301771208897  1.0000
  V   V12       1.0  0.005393000189509189  0.005775415638911728  0.9988291877467226  1.0000
  Ga  Ga1       1.0  0.00014659335713298097  0.0012494912764959391  0.9976301772323131  1.0000
  Ga  Ga2       1.0  0.002184177587331425  0.003749491330748206  0.9981144604689168  1.0000
  Ga  Ga3       1.0  0.004221761738724058  0.008749490896730073  0.9971458939246357  1.0000
  Ga  Ga4       1.0  0.00818673909042303  0.00874975709451827  0.9985616586468022  1.0000
  Ga  Ga5       1.0  0.0060714251735021025  0.003749491330748206  0.9981144607323968  1.0000
  Ga  Ga6       1.0  0.00014659335713298097  0.006249491475420916  0.9976301772323131  1.0000
  Ga  Ga7       1.0  0.0022850971922943387  0.003749157498467627  0.9989897480388813  1.0000
  Ga  Ga8       1.0  0.008109009577073332  0.008749490896730073  0.9971458941581474  1.0000
  Ga  Ga9       1.0  0.0033636557215990896  0.008750508669251795  0.9984766916635085  1.0000
  Ga  Ga10      1.0  0.006813259961385445  0.003749491330748206  0.9968379264460943  1.0000
