data_image0
_chemical_formula_structural       COCo18
_chemical_formula_sum              "C1 O1 Co18"
_cell_length_a       4.690155288830861
_cell_length_b       5.849299936218919
_cell_length_c       98.65301513671875
_cell_angle_alpha    85.39592469582654
_cell_angle_beta     86.86696929156643
_cell_angle_gamma    75.80684763124576

_space_group_name_H-M_alt    "P 1"
_space_group_IT_number       1

loop_
  _space_group_symop_operation_xyz
  'x, y, z'

loop_
  _atom_site_type_symbol
  _atom_site_label
  _atom_site_symmetry_multiplicity
  _atom_site_fract_x
  _atom_site_fract_y
  _atom_site_fract_z
  _atom_site_occupancy
  C   C1        1.0  0.0014307862179699054  0.0009122741539372049  5.37050578934684e-05  1.0000
  O   O1        1.0  0.0014307862179699054  0.0009122741539372049  0.00017534375593087533  1.0000
  Co  Co1       1.0  0.007055390518953559  0.008554667590131603  0.9999409529371899  1.0000
  Co  Co2       1.0  0.0008820611114350956  0.005290130724528033  0.9998703261005557  1.0000
  Co  Co3       1.0  0.00467791757745712  0.001918965598950372  0.9997953594658431  1.0000
  Co  Co4       1.0  0.0019363837645377908  0.00908478306412847  0.9998856978990279  1.0000
  Co  Co5       1.0  0.005808535652573087  0.005709201352232167  0.9998065011687854  1.0000
  Co  Co6       1.0  0.008091906984349409  0.002367553833017968  0.999951296534829  1.0000
  Co  Co7       1.0  0.008614659291278687  0.008546617378748659  0.9997123204147257  1.0000
  Co  Co8       1.0  0.0025303697222487844  0.005198836717917454  0.9996322515643731  1.0000
  Co  Co9       1.0  0.006419258159334675  0.00186550347018964  0.999551573203628  1.0000
  Co  Co10      1.0  0.003548888042366279  0.009087725259994238  0.9996456979208524  1.0000
  Co  Co11      1.0  0.007437777126155055  0.005754392506144422  0.9995650195560765  1.0000
  Co  Co12      1.0  0.009691852029576821  0.0024184761118560814  0.9997259121236696  1.0000
  Co  Co13      1.0  0.00030814770179166915  0.008532169801019267  0.9994708945973217  1.0000
  Co  Co14      1.0  0.004197036288156218  0.005198836717917454  0.9993902162354052  1.0000
  Co  Co15      1.0  0.008085925122975924  0.00186550347018964  0.9993095378736266  1.0000
  Co  Co16      1.0  0.0052155546082737125  0.009087725259994238  0.9994036625918846  1.0000
  Co  Co17      1.0  0.009104443294328673  0.005754392506144422  0.999322984228142  1.0000
  Co  Co18      1.0  0.0013266658692390263  0.002421058929164609  0.9994843411115174  1.0000
