data_image0
_chemical_formula_structural       HV2Ir2V2Ir2V2Ir2V2Ir2V2Ir2V2Ir2
_chemical_formula_sum              "H1 V12 Ir12"
_cell_length_a       7.882270893821215
_cell_length_b       5.509035110473633
_cell_length_c       100.29969024658203
_cell_angle_alpha    90.0
_cell_angle_beta     69.54587174449345
_cell_angle_gamma    90.0

_space_group_name_H-M_alt    "P 1"
_space_group_IT_number       1

loop_
  _space_group_symop_operation_xyz
  'x, y, z'

loop_
  _atom_site_type_symbol
  _atom_site_label
  _atom_site_symmetry_multiplicity
  _atom_site_fract_x
  _atom_site_fract_y
  _atom_site_fract_z
  _atom_site_occupancy
  H   H1        1.0  0.0012637633908270732  0.0012499999560460471  0.999965293427755  1.0000
  V   V1        1.0  0.006250000100883768  0.003749999783611309  0.9997621790477488  1.0000
  V   V2        1.0  0.001249999944513928  0.003749999783611309  0.9998994934120609  1.0000
  Ir  Ir1       1.0  0.003749999959646493  0.0012499999560460471  0.9996935216814538  1.0000
  Ir  Ir2       1.0  0.008750000242121043  0.0012499999560460471  0.9998308358197783  1.0000
  V   V3        1.0  0.006250000100883768  0.003749999783611309  0.9994875499473834  1.0000
  V   V4        1.0  0.001249999944513928  0.003749999783611309  0.9996248643116955  1.0000
  Ir  Ir3       1.0  0.003749999959646493  0.0012499999560460471  0.9994188928782212  1.0000
  Ir  Ir4       1.0  0.008750000242121043  0.0012499999560460471  0.9995562073136784  1.0000
  V   V5        1.0  0.006250000100883768  0.003749999783611309  0.9992129214412836  1.0000
  V   V6        1.0  0.001249999944513928  0.003749999783611309  0.9993502358055957  1.0000
  Ir  Ir5       1.0  0.003749999959646493  0.0012499999560460471  0.9991442643721212  1.0000
  Ir  Ir6       1.0  0.008750000242121043  0.0012499999560460471  0.9992815785104459  1.0000
  V   V7        1.0  0.006250000100883768  0.008749999945902828  0.9997621790477488  1.0000
  V   V8        1.0  0.001249999944513928  0.008749999945902828  0.9998994934120609  1.0000
  Ir  Ir7       1.0  0.003749999959646493  0.006249999864757068  0.9996935216814538  1.0000
  Ir  Ir8       1.0  0.008750000242121043  0.006249999864757068  0.9998308358197783  1.0000
  V   V9        1.0  0.006250000100883768  0.008749999945902828  0.9994875499473834  1.0000
  V   V10       1.0  0.001249999944513928  0.008749999945902828  0.9996248643116955  1.0000
  Ir  Ir9       1.0  0.003749999959646493  0.006249999864757068  0.9994188928782212  1.0000
  Ir  Ir10      1.0  0.008750000242121043  0.006249999864757068  0.9995562073136784  1.0000
  V   V11       1.0  0.006250000100883768  0.008749999945902828  0.9992129214412836  1.0000
  V   V12       1.0  0.001249999944513928  0.008749999945902828  0.9993502358055957  1.0000
  Ir  Ir11      1.0  0.003749999959646493  0.006249999864757068  0.9991442643721212  1.0000
  Ir  Ir12      1.0  0.008750000242121043  0.006249999864757068  0.9992815785104459  1.0000
