data_image0
_chemical_formula_structural       COAl8Co4Os4Al8Co4Os4
_chemical_formula_sum              "C1 O1 Al16 Co8 Os8"
_cell_length_a       8.391155242919922
_cell_length_b       5.933443069458008
_cell_length_c       103.56462097167969
_cell_angle_alpha    90.0
_cell_angle_beta     90.0
_cell_angle_gamma    90.0

_space_group_name_H-M_alt    "P 1"
_space_group_IT_number       1

loop_
  _space_group_symop_operation_xyz
  'x, y, z'

loop_
  _atom_site_type_symbol
  _atom_site_label
  _atom_site_symmetry_multiplicity
  _atom_site_fract_x
  _atom_site_fract_y
  _atom_site_fract_z
  _atom_site_occupancy
  C   C1        1.0  0.0037499998046600634  0.004999999698633774  0.00015908481222994247  1.0000
  O   O1        1.0  0.0037499998046600634  0.004999999698633774  0.0002749541564274339  1.0000
  Al  Al1       1.0  0.0037499998046600634  0.007499999547950661  0.9993879493082652  1.0000
  Al  Al2       1.0  0.0037500002486144644  0.007473435370847615  0.9997925187901187  1.0000
  Al  Al3       1.0  0.0037499998046600634  0.002500000006278463  0.9993879493082652  1.0000
  Al  Al4       1.0  0.0037499998046600634  0.002526564497304661  0.9997925182145877  1.0000
  Al  Al5       1.0  0.0012499998978904878  0.002500000006278463  0.999590507714159  1.0000
  Al  Al6       1.0  0.0012499998978904878  0.0025086835915412364  0.0  1.0000
  Al  Al7       1.0  0.0012499998978904878  0.007499999547950661  0.999590507714159  1.0000
  Al  Al8       1.0  0.001250000008879088  0.007491316433572615  0.0  1.0000
  Co  Co1       1.0  0.001250000008879088  0.005000000012556926  0.9997894886196628  1.0000
  Co  Co2       1.0  0.0012499998978904878  0.005000000012556926  0.9993879493082652  1.0000
  Co  Co3       1.0  0.0037499998046600634  4.99999962640405e-11  0.9999859415054652  1.0000
  Co  Co4       1.0  0.0037499998046600634  4.99999962640405e-11  0.999590507714159  1.0000
  Os  Os1       1.0  0.0012500001198676883  0.009999999397267548  0.9997924813806068  1.0000
  Os  Os2       1.0  0.0012499998978904878  4.99999962640405e-11  0.9993879493082652  1.0000
  Os  Os3       1.0  0.0037499998046600634  0.004999999698633774  0.9999918412732417  1.0000
  Os  Os4       1.0  0.0037499998046600634  0.005000000012556926  0.999590507714159  1.0000
  Al  Al9       1.0  0.008750000284130817  0.007499999547950661  0.9993879493082652  1.0000
  Al  Al10      1.0  0.008750000284130817  0.007473435370847615  0.9997925187901187  1.0000
  Al  Al11      1.0  0.008750000284130817  0.002500000006278463  0.9993879493082652  1.0000
  Al  Al12      1.0  0.008750000284130817  0.002526564497304661  0.9997925182145877  1.0000
  Al  Al13      1.0  0.006249999822418239  0.002500000006278463  0.999590507714159  1.0000
  Al  Al14      1.0  0.006249999822418239  0.0025086835915412364  0.0  1.0000
  Al  Al15      1.0  0.006249999822418239  0.007499999547950661  0.999590507714159  1.0000
  Al  Al16      1.0  0.006249999822418239  0.007491316433572615  0.0  1.0000
  Co  Co5       1.0  0.006249999822418239  0.005000000012556926  0.9997894886196628  1.0000
  Co  Co6       1.0  0.006249999822418239  0.005000000012556926  0.9993879493082652  1.0000
  Co  Co7       1.0  0.008750000284130817  4.99999962640405e-11  0.9999859415054652  1.0000
  Co  Co8       1.0  0.008750000284130817  4.99999962640405e-11  0.999590507714159  1.0000
  Os  Os5       1.0  0.0062500002663726404  0.009999999397267548  0.9997924813806068  1.0000
  Os  Os6       1.0  0.006249999822418239  4.99999962640405e-11  0.9993879493082652  1.0000
  Os  Os7       1.0  0.008750000284130817  0.004999999698633774  0.9999918412732417  1.0000
  Os  Os8       1.0  0.008750000284130817  0.005000000012556926  0.999590507714159  1.0000
