data_image0
_chemical_formula_structural       HFe8Si8Fe8Si8Fe8Si8Fe8Si8
_chemical_formula_sum              "H1 Fe32 Si32"
_cell_length_a       6.32500696182251
_cell_length_b       8.944911003112793
_cell_length_c       107.95004272460938
_cell_angle_alpha    90.0
_cell_angle_beta     90.0
_cell_angle_gamma    90.0

_space_group_name_H-M_alt    "P 1"
_space_group_IT_number       1

loop_
  _space_group_symop_operation_xyz
  'x, y, z'

loop_
  _atom_site_type_symbol
  _atom_site_label
  _atom_site_symmetry_multiplicity
  _atom_site_fract_x
  _atom_site_fract_y
  _atom_site_fract_z
  _atom_site_occupancy
  H   H1        1.0  0.003977515461192245  0.004488757512592197  7.666606439588082e-06  1.0000
  Fe  Fe1       1.0  0.008182947171363626  0.0031815226491507627  0.9997736564894212  1.0000
  Fe  Fe2       1.0  0.0031829472538205546  0.0031815226491507627  0.9994806966014329  1.0000
  Fe  Fe3       1.0  0.008409038177350206  0.0006815227157860205  0.9996271765454271  1.0000
  Fe  Fe4       1.0  0.0034090379653181073  0.0006815227157860205  0.9999201364334153  1.0000
  Fe  Fe5       1.0  0.004545992662577355  0.001818477217578722  0.9996937929228364  1.0000
  Fe  Fe6       1.0  0.009545992580120427  0.001818477217578722  0.9999867528108247  1.0000
  Fe  Fe7       1.0  0.007045992768593405  0.004318477359178644  0.0  1.0000
  Fe  Fe8       1.0  0.002045992556561306  0.004318477359178644  0.9997070401120117  1.0000
  Si  Si1       1.0  0.006137977669683918  0.0017040075281781846  0.9994806966014329  1.0000
  Si  Si2       1.0  0.0011379776785185888  0.0017040075281781846  0.9997736564894212  1.0000
  Si  Si3       1.0  0.005454007466997816  0.004204007565660517  0.9996271765454271  1.0000
  Si  Si4       1.0  0.000454007475832487  0.004204007565660517  0.9999201364334153  1.0000
  Si  Si5       1.0  0.009545992580120427  0.00329599244266889  0.9995739741065731  1.0000
  Si  Si6       1.0  0.004545992662577355  0.00329599244266889  0.9998669339945614  1.0000
  Si  Si7       1.0  0.007045992768593405  0.0007959925093041477  0.999826858928275  1.0000
  Si  Si8       1.0  0.002045992556561306  0.0007959925093041477  0.9995338990402869  1.0000
  Fe  Fe9       1.0  0.008182947171363626  0.0031815226491507627  0.9991877367134447  1.0000
  Fe  Fe10      1.0  0.0031829472538205546  0.0031815226491507627  0.9988947765493813  1.0000
  Fe  Fe11      1.0  0.008409038177350206  0.0006815227157860205  0.9990412564933755  1.0000
  Fe  Fe12      1.0  0.0034090379653181073  0.0006815227157860205  0.9993342166574388  1.0000
  Fe  Fe13      1.0  0.004545992662577355  0.001818477217578722  0.99910787314686  1.0000
  Fe  Fe14      1.0  0.009545992580120427  0.001818477217578722  0.9994008330348483  1.0000
  Fe  Fe15      1.0  0.007045992768593405  0.004318477359178644  0.9994140802240236  1.0000
  Fe  Fe16      1.0  0.002045992556561306  0.004318477359178644  0.9991211203360353  1.0000
  Si  Si9       1.0  0.006137977669683918  0.0017040075281781846  0.9988947765493813  1.0000
  Si  Si10      1.0  0.0011379776785185888  0.0017040075281781846  0.9991877367134447  1.0000
  Si  Si11      1.0  0.005454007466997816  0.004204007565660517  0.9990412564933755  1.0000
  Si  Si12      1.0  0.000454007475832487  0.004204007565660517  0.9993342166574388  1.0000
  Si  Si13      1.0  0.009545992580120427  0.00329599244266889  0.9989880540545215  1.0000
  Si  Si14      1.0  0.004545992662577355  0.00329599244266889  0.999281014218585  1.0000
  Si  Si15      1.0  0.007045992768593405  0.0007959925093041477  0.9992409391522986  1.0000
  Si  Si16      1.0  0.002045992556561306  0.0007959925093041477  0.9989479789882353  1.0000
  Fe  Fe17      1.0  0.008182947171363626  0.008181522724115427  0.9997736564894212  1.0000
  Fe  Fe18      1.0  0.0031829472538205546  0.008181522724115427  0.9994806966014329  1.0000
  Fe  Fe19      1.0  0.008409038177350206  0.005681522790750685  0.9996271765454271  1.0000
  Fe  Fe20      1.0  0.0034090379653181073  0.005681522790750685  0.9999201364334153  1.0000
  Fe  Fe21      1.0  0.004545992662577355  0.006818477292543387  0.9996937929228364  1.0000
  Fe  Fe22      1.0  0.009545992580120427  0.006818477292543387  0.9999867528108247  1.0000
  Fe  Fe23      1.0  0.007045992768593405  0.00931847680943777  0.0  1.0000
  Fe  Fe24      1.0  0.002045992556561306  0.00931847680943777  0.9997070401120117  1.0000
  Si  Si17      1.0  0.006137977669683918  0.006704007499025259  0.9994806966014329  1.0000
  Si  Si18      1.0  0.0011379776785185888  0.006704007499025259  0.9997736564894212  1.0000
  Si  Si19      1.0  0.005454007466997816  0.009204007432390002  0.9996271765454271  1.0000
  Si  Si20      1.0  0.000454007475832487  0.009204007432390002  0.9999201364334153  1.0000
  Si  Si21      1.0  0.009545992580120427  0.008295992101163196  0.9995739741065731  1.0000
  Si  Si22      1.0  0.004545992662577355  0.008295992101163196  0.9998669339945614  1.0000
  Si  Si23      1.0  0.007045992768593405  0.005795992584268812  0.999826858928275  1.0000
  Si  Si24      1.0  0.002045992556561306  0.005795992584268812  0.9995338990402869  1.0000
  Fe  Fe25      1.0  0.008182947171363626  0.008181522724115427  0.9991877367134447  1.0000
  Fe  Fe26      1.0  0.0031829472538205546  0.008181522724115427  0.9988947765493813  1.0000
  Fe  Fe27      1.0  0.008409038177350206  0.005681522790750685  0.9990412564933755  1.0000
  Fe  Fe28      1.0  0.0034090379653181073  0.005681522790750685  0.9993342166574388  1.0000
  Fe  Fe29      1.0  0.004545992662577355  0.006818477292543387  0.99910787314686  1.0000
  Fe  Fe30      1.0  0.009545992580120427  0.006818477292543387  0.9994008330348483  1.0000
  Fe  Fe31      1.0  0.007045992768593405  0.00931847680943777  0.9994140802240236  1.0000
  Fe  Fe32      1.0  0.002045992556561306  0.00931847680943777  0.9991211203360353  1.0000
  Si  Si25      1.0  0.006137977669683918  0.006704007499025259  0.9988947765493813  1.0000
  Si  Si26      1.0  0.0011379776785185888  0.006704007499025259  0.9991877367134447  1.0000
  Si  Si27      1.0  0.005454007466997816  0.009204007432390002  0.9990412564933755  1.0000
  Si  Si28      1.0  0.000454007475832487  0.009204007432390002  0.9993342166574388  1.0000
  Si  Si29      1.0  0.009545992580120427  0.008295992101163196  0.9989880540545215  1.0000
  Si  Si30      1.0  0.004545992662577355  0.008295992101163196  0.999281014218585  1.0000
  Si  Si31      1.0  0.007045992768593405  0.005795992584268812  0.9992409391522986  1.0000
  Si  Si32      1.0  0.002045992556561306  0.005795992584268812  0.9989479789882353  1.0000
