data_image0
_chemical_formula_structural       COSn6Rh18Sn6Rh18
_chemical_formula_sum              "C1 O1 Sn12 Rh36"
_cell_length_a       9.054341502763641
_cell_length_b       8.683058174775903
_cell_length_c       110.08528137207031
_cell_angle_alpha    109.25357153273079
_cell_angle_beta     71.56505213127018
_cell_angle_gamma    77.96249668841931

_space_group_name_H-M_alt    "P 1"
_space_group_IT_number       1

loop_
  _space_group_symop_operation_xyz
  'x, y, z'

loop_
  _atom_site_type_symbol
  _atom_site_label
  _atom_site_symmetry_multiplicity
  _atom_site_fract_x
  _atom_site_fract_y
  _atom_site_fract_z
  _atom_site_occupancy
  C   C1        1.0  0.0034317202708902183  0.007173239495004852  9.73140558116056e-05  1.0000
  O   O1        1.0  0.0034317202708902183  0.007173239495004852  0.0002063201333224798  1.0000
  Sn  Sn1       1.0  0.0004166666458102986  5.768000069134503e-07  0.9994168669470735  1.0000
  Sn  Sn2       1.0  0.0037499999632415702  5.768000069134503e-07  0.9990700771149441  1.0000
  Sn  Sn3       1.0  0.007083333389095988  5.768000069134503e-07  0.999243472039638  1.0000
  Sn  Sn4       1.0  0.008749999770251402  0.005000576910589435  0.9993301695026615  1.0000
  Sn  Sn5       1.0  0.0020833333522351496  0.005000576910589435  0.9989833796419937  1.0000
  Sn  Sn6       1.0  0.005416666344396985  0.005000576910589435  0.9991567745779676  1.0000
  Rh  Rh1       1.0  0.007916666386429834  0.0025005767844908803  0.9991567748551438  1.0000
  Rh  Rh2       1.0  0.0012499999684135814  0.0025005767844908803  0.9993301697541193  1.0000
  Rh  Rh3       1.0  0.0045833333942679995  0.0025005767844908803  0.9989833796484495  1.0000
  Rh  Rh4       1.0  0.0012499999684135814  0.0025005767844908803  0.9990700771035773  1.0000
  Rh  Rh5       1.0  0.0045833333942679995  0.0025005767844908803  0.9992434722989915  1.0000
  Rh  Rh6       1.0  0.007916666386429834  0.0025005767844908803  0.9994168672349655  1.0000
  Rh  Rh7       1.0  0.008749999770251402  0.005000576910589435  0.9990700771228399  1.0000
  Rh  Rh8       1.0  0.0020833333522351496  0.005000576910589435  0.9992434720218153  1.0000
  Rh  Rh9       1.0  0.005416666344396985  0.005000576910589435  0.9994168669577893  1.0000
  Rh  Rh10      1.0  0.009583333234905374  0.00750057679419077  0.9992434723033887  1.0000
  Rh  Rh11      1.0  0.0029166668168891198  0.00750057679419077  0.9994168672023642  1.0000
  Rh  Rh12      1.0  0.0062499998090509564  0.00750057679419077  0.9990700771079745  1.0000
  Rh  Rh13      1.0  0.0062499998090509564  0.00750057679419077  0.9993301697585164  1.0000
  Rh  Rh14      1.0  0.009583333234905374  0.00750057679419077  0.9989833796528467  1.0000
  Rh  Rh15      1.0  0.0029166668168891198  0.00750057679419077  0.9991567745518222  1.0000
  Rh  Rh16      1.0  0.0004166666458102986  5.768000069134503e-07  0.9991567745672519  1.0000
  Rh  Rh17      1.0  0.0037499999632415702  5.768000069134503e-07  0.9993301694947658  1.0000
  Rh  Rh18      1.0  0.007083333389095988  5.768000069134503e-07  0.9989833796598164  1.0000
  Sn  Sn7       1.0  0.00042354235310299525  7.61643002355459e-05  0.9999353692963464  1.0000
  Sn  Sn8       1.0  0.0037499999632415702  5.768000069134503e-07  0.9995902618745874  1.0000
  Sn  Sn9       1.0  0.00688531622940699  0.00020749911298396394  0.9997905215223064  1.0000
  Sn  Sn10      1.0  0.008716659406551874  0.005285059615827288  0.9998615151390935  1.0000
  Sn  Sn11      1.0  0.0020833333522351496  0.005000576910589435  0.999503564401637  1.0000
  Sn  Sn12      1.0  0.005442009213896651  0.004923368220289845  0.9996700920948942  1.0000
  Rh  Rh19      1.0  0.007962158763844202  0.002436455184232084  0.9996716093490166  1.0000
  Rh  Rh20      1.0  0.001355828748830057  0.0025214012333726835  0.9998354387115314  1.0000
  Rh  Rh21      1.0  0.0045833333942679995  0.0025005767844908803  0.9995035646788132  1.0000
  Rh  Rh22      1.0  0.0012499999684135814  0.0025005767844908803  0.9995902621339409  1.0000
  Rh  Rh23      1.0  0.004498950315932766  0.0025482728354628186  0.9997671280709374  1.0000
  Rh  Rh24      1.0  0.00810711454761732  0.002601678726008217  0.9999144815365644  1.0000
  Rh  Rh25      1.0  0.008749999770251402  0.005000576910589435  0.9995902618824831  1.0000
  Rh  Rh26      1.0  0.002027578969568262  0.005074742745755764  0.999767027785432  1.0000
  Rh  Rh27      1.0  0.005602132832164867  0.004959059446319791  0.9999138208550599  1.0000
  Rh  Rh28      1.0  0.009562328200561252  0.007582441916134357  0.9997586024892232  1.0000
  Rh  Rh29      1.0  0.003055942730628243  0.0074640285829806405  0.9999140877967918  1.0000
  Rh  Rh30      1.0  0.0062499998090509564  0.00750057679419077  0.9995902621383381  1.0000
  Rh  Rh31      1.0  0.006177971123602317  0.007485292194330274  0.9998382440185805  1.0000
  Rh  Rh32      1.0  0.009583333234905374  0.00750057679419077  0.9995035646832103  1.0000
  Rh  Rh33      1.0  0.002903019414634791  0.007466574318810174  0.9996709616118639  1.0000
  Rh  Rh34      1.0  0.00044065197750107197  0.009999423361007453  0.9996765870141534  1.0000
  Rh  Rh35      1.0  0.0036950795764532193  2.136330044171509e-05  0.9998413640327758  1.0000
  Rh  Rh36      1.0  0.007083333389095988  5.768000069134503e-07  0.9995035644194598  1.0000
