data_image0
_chemical_formula_structural       Fe9V3Fe9V3Fe9V3Fe9V3H
_chemical_formula_sum              "Fe36 V12 H1"
_cell_length_a       7.98772668838501
_cell_length_b       7.987726427022565
_cell_length_c       109.13170623779297
_cell_angle_alpha    90.0
_cell_angle_beta     90.0
_cell_angle_gamma    120.0000010823856

_space_group_name_H-M_alt    "P 1"
_space_group_IT_number       1

loop_
  _space_group_symop_operation_xyz
  'x, y, z'

loop_
  _atom_site_type_symbol
  _atom_site_label
  _atom_site_symmetry_multiplicity
  _atom_site_fract_x
  _atom_site_fract_y
  _atom_site_fract_z
  _atom_site_occupancy
  Fe  Fe1       1.0  0.009999999101463408  0.009999999396851386  0.9997951337424954  1.0000
  Fe  Fe2       1.0  0.0033333340207334534  0.001666667239298834  0.9994933362164206  1.0000
  Fe  Fe3       1.0  0.0016666674950360722  0.0033333339400721186  0.9991945251569636  1.0000
  Fe  Fe4       1.0  0.003333333109555054  0.0016666649505652502  0.999919499213373  1.0000
  Fe  Fe5       1.0  0.0016666674950360722  0.0033333339400721186  0.9996427414730632  1.0000
  Fe  Fe6       1.0  7.499999796312217e-10  5.500000368328468e-10  0.9993439304136063  1.0000
  Fe  Fe7       1.0  7.499999796312217e-10  5.500000368328468e-10  0.9995680388447419  1.0000
  Fe  Fe8       1.0  0.0033333340207334534  0.001666667239298834  0.9992692277852849  1.0000
  Fe  Fe9       1.0  0.0016666643104047117  0.0033333336708093442  0.9999095769128888  1.0000
  V   V1        1.0  0.0016666674950360722  0.0033333339400721186  0.9994186330419276  1.0000
  V   V2        1.0  0.009999998562937857  0.009999998319800286  0.0  1.0000
  V   V3        1.0  0.0033333340207334534  0.001666667239298834  0.9997174441013845  1.0000
  Fe  Fe10      1.0  0.009999998953769419  0.004999999698425693  0.9997951337424954  1.0000
  Fe  Fe11      1.0  0.0033333340958093378  0.0066666673416186885  0.9994933362164206  1.0000
  Fe  Fe12      1.0  0.0016666674855498286  0.008333333907760586  0.9991945251569636  1.0000
  Fe  Fe13      1.0  0.0033333333687582387  0.006666665187516492  0.999919499213373  1.0000
  Fe  Fe14      1.0  0.0016666674855498286  0.008333333907760586  0.9996427414730632  1.0000
  Fe  Fe15      1.0  9.194079310630116e-10  0.0050000007754767905  0.9993439304136063  1.0000
  Fe  Fe16      1.0  9.194079310630116e-10  0.0050000007754767905  0.9995680388447419  1.0000
  Fe  Fe17      1.0  0.0033333340958093378  0.0066666673416186885  0.9992692277852849  1.0000
  Fe  Fe18      1.0  0.0016666644541007212  0.008333333907760586  0.9999095769128888  1.0000
  V   V4        1.0  0.0016666674855498286  0.008333333907760586  0.9994186330419276  1.0000
  V   V5        1.0  0.009999998612357881  0.004999998082849046  0.0  1.0000
  V   V6        1.0  0.0033333340958093378  0.0066666673416186885  0.9997174441013845  1.0000
  Fe  Fe19      1.0  0.004999999223425732  0.009999999396851386  0.9997951337424954  1.0000
  Fe  Fe20      1.0  0.008333333656959561  0.001666667239298834  0.9994933362164206  1.0000
  Fe  Fe21      1.0  0.0066666673058273455  0.0033333339400721186  0.9991945251569636  1.0000
  Fe  Fe22      1.0  0.008333332978969554  0.0016666649505652502  0.999919499213373  1.0000
  Fe  Fe23      1.0  0.0066666673058273455  0.0033333339400721186  0.9996427414730632  1.0000
  Fe  Fe24      1.0  0.005000000610791305  5.500000368328468e-10  0.9993439304136063  1.0000
  Fe  Fe25      1.0  0.005000000610791305  5.500000368328468e-10  0.9995680388447419  1.0000
  Fe  Fe26      1.0  0.008333333656959561  0.001666667239298834  0.9992692277852849  1.0000
  Fe  Fe27      1.0  0.006666664372935244  0.0033333336708093442  0.9999095769128888  1.0000
  V   V7        1.0  0.0066666673058273455  0.0033333339400721186  0.9994186330419276  1.0000
  V   V8        1.0  0.004999998784900146  0.009999998319800286  0.0  1.0000
  V   V9        1.0  0.008333333656959561  0.001666667239298834  0.9997174441013845  1.0000
  Fe  Fe28      1.0  0.004999999317543312  0.004999999698425693  0.9997951337424954  1.0000
  Fe  Fe29      1.0  0.008333334006600631  0.0066666673416186885  0.9994933362164206  1.0000
  Fe  Fe30      1.0  0.006666667354964329  0.008333333907760586  0.9991945251569636  1.0000
  Fe  Fe31      1.0  0.00833333339592632  0.006666665187516492  0.999919499213373  1.0000
  Fe  Fe32      1.0  0.006666667354964329  0.008333333907760586  0.9996427414730632  1.0000
  Fe  Fe33      1.0  0.005000000788822432  0.0050000007754767905  0.9993439304136063  1.0000
  Fe  Fe34      1.0  0.005000000788822432  0.0050000007754767905  0.9995680388447419  1.0000
  Fe  Fe35      1.0  0.008333334006600631  0.0066666673416186885  0.9992692277852849  1.0000
  Fe  Fe36      1.0  0.006666664323515222  0.008333333907760586  0.9999095769128888  1.0000
  V   V10       1.0  0.006666667354964329  0.008333333907760586  0.9994186330419276  1.0000
  V   V11       1.0  0.004999998509754987  0.004999998082849046  0.0  1.0000
  V   V12       1.0  0.008333334006600631  0.0066666673416186885  0.9997174441013845  1.0000
  H   H1        1.0  0.002499999111875055  0.0025000003877383953  0.9999509592469605  1.0000
