data_image0
_chemical_formula_structural       HCr4Co4Pt8Cr4Co4Pt8
_chemical_formula_sum              "H1 Cr8 Co8 Pt16"
_cell_length_a       5.381418704986572
_cell_length_b       8.48156547520504
_cell_length_c       109.33423614501953
_cell_angle_alpha    105.58865330649812
_cell_angle_beta     90.0
_cell_angle_gamma    50.618266035858696

_space_group_name_H-M_alt    "P 1"
_space_group_IT_number       1

loop_
  _space_group_symop_operation_xyz
  'x, y, z'

loop_
  _atom_site_type_symbol
  _atom_site_label
  _atom_site_symmetry_multiplicity
  _atom_site_fract_x
  _atom_site_fract_y
  _atom_site_fract_z
  _atom_site_occupancy
  H   H1        1.0  0.0030760691548570116  0.005205020810650523  0.00010850680324153249  1.0000
  Cr  Cr1       1.0  0.007646550471747569  0.008125000363636082  0.9990454499167225  1.0000
  Cr  Cr2       1.0  0.00514655090121563  0.005624999878787973  0.9991953504125287  1.0000
  Cr  Cr3       1.0  0.00014655048860510723  0.0006250000075757518  0.9994951516996208  1.0000
  Cr  Cr4       1.0  0.0026465507246235553  0.003125  0.9993452509209692  1.0000
  Co  Co1       1.0  0.00014655084583558184  0.005624999878787973  0.9991953504125287  1.0000
  Co  Co2       1.0  0.007646550780003604  0.003125  0.9993452509209692  1.0000
  Co  Co3       1.0  0.0026465504163675213  0.008125000363636082  0.9990454499167225  1.0000
  Co  Co4       1.0  0.005146550717047804  0.0006250000075757518  0.9994951516996208  1.0000
  Pt  Pt1       1.0  0.003896550115443031  0.009375000000000001  0.9992703006843672  1.0000
  Pt  Pt2       1.0  0.0013965506311015513  0.006875000121212027  0.9994202014653877  1.0000
  Pt  Pt3       1.0  0.006396550691707565  0.0018750000606060136  0.9991204001470073  1.0000
  Pt  Pt4       1.0  0.008896549873018978  0.004375000242424054  0.9989704996448839  1.0000
  Pt  Pt5       1.0  0.00889655017082308  0.009375000000000001  0.9992703006843672  1.0000
  Pt  Pt6       1.0  0.0063965499942310045  0.006875000121212027  0.9994202014653877  1.0000
  Pt  Pt7       1.0  0.001396550636327518  0.0018750000606060136  0.9991204001470073  1.0000
  Pt  Pt8       1.0  0.0038965505098895246  0.004375000242424054  0.9989704996448839  1.0000
  Cr  Cr5       1.0  0.007646550471747569  0.008125000363636082  0.9996450522456666  1.0000
  Cr  Cr6       1.0  0.00514655090121563  0.005624999878787973  0.9997949530140529  1.0000
  Cr  Cr7       1.0  0.009853449578383515  0.0009176173184544439  7.357429126425478e-05  1.0000
  Cr  Cr8       1.0  0.0026912740695220062  0.0030794251868701585  0.9999762758587216  1.0000
  Co  Co5       1.0  0.00014655084583558184  0.005624999878787973  0.9997949530140529  1.0000
  Co  Co6       1.0  0.0077624295534164485  0.003008140999745164  0.9999666598582301  1.0000
  Co  Co7       1.0  0.0026465504163675213  0.008125000363636082  0.9996450522456666  1.0000
  Co  Co8       1.0  0.0049722022795992615  0.0007994180162090542  7.395270574618881e-05  1.0000
  Pt  Pt9       1.0  0.004019901621192375  0.009252418276911882  0.9998639921461031  1.0000
  Pt  Pt10      1.0  0.001713567188558429  0.006588434282911587  1.290365430976756e-05  1.0000
  Pt  Pt11      1.0  0.006396550691707565  0.0018750000606060136  0.9997200024759515  1.0000
  Pt  Pt12      1.0  0.008896549873018978  0.004375000242424054  0.9995701017012482  1.0000
  Pt  Pt13      1.0  0.009018195887643729  0.00925241282237066  0.9998639827646758  1.0000
  Pt  Pt14      1.0  0.006653005842954142  0.006587719738011355  1.2887668183388967e-05  1.0000
  Pt  Pt15      1.0  0.001396550636327518  0.0018750000606060136  0.9997200024759515  1.0000
  Pt  Pt16      1.0  0.0038965505098895246  0.004375000242424054  0.9995701017012482  1.0000
