data_image0
_chemical_formula_structural       COCr3Pd9Cr3Pd9
_chemical_formula_sum              "C1 O1 Cr6 Pd18"
_cell_length_a       5.504426002502441
_cell_length_b       5.504425820975153
_cell_length_c       103.70758819580078
_cell_angle_alpha    90.0
_cell_angle_beta     90.0
_cell_angle_gamma    59.999998909082514

_space_group_name_H-M_alt    "P 1"
_space_group_IT_number       1

loop_
  _space_group_symop_operation_xyz
  'x, y, z'

loop_
  _atom_site_type_symbol
  _atom_site_label
  _atom_site_symmetry_multiplicity
  _atom_site_fract_x
  _atom_site_fract_y
  _atom_site_fract_z
  _atom_site_occupancy
  C   C1        1.0  0.007485402968979899  0.0008625315823912736  0.00015565214650955725  1.0000
  O   O1        1.0  0.007485402968979899  0.0008625315823912736  0.0002713617577618627  1.0000
  Cr  Cr1       1.0  0.006666666642186924  0.007500000500146743  0.9989142854286247  1.0000
  Cr  Cr2       1.0  3.2033042296644005e-10  0.0008333333671974357  0.9993476524817333  1.0000
  Cr  Cr3       1.0  0.0033333335854872346  0.004166666640617357  0.999130968955179  1.0000
  Pd  Pd1       1.0  0.008333332956005838  0.009166666843801971  0.999130968955179  1.0000
  Pd  Pd2       1.0  0.0016666670309627887  0.002500000101592307  0.9989142854286247  1.0000
  Pd  Pd3       1.0  0.005000000042326768  0.005833333375012228  0.9993476524817333  1.0000
  Pd  Pd4       1.0  0.003333333307931897  0.009166666843801971  0.999130968955179  1.0000
  Pd  Pd5       1.0  0.006666666679036729  0.002500000101592307  0.9989142854286247  1.0000
  Pd  Pd6       1.0  3.9425282821790306e-10  0.005833333375012228  0.9993476524817333  1.0000
  Pd  Pd7       1.0  0.008333333571951616  0.004166666640617357  0.999130968955179  1.0000
  Pd  Pd8       1.0  0.001666666655722541  0.007500000500146743  0.9989142854286247  1.0000
  Pd  Pd9       1.0  0.005000000222197195  0.0008333333671974357  0.9993476524817333  1.0000
  Cr  Cr4       1.0  0.006666666642186924  0.007500000500146743  0.9995643362956563  1.0000
  Cr  Cr5       1.0  0.009999999915606845  0.0008333339533069002  0.9999772777511059  1.0000
  Cr  Cr6       1.0  0.0033333336901856356  0.004166665077658785  0.9997982659717634  1.0000
  Pd  Pd10      1.0  0.008328631951567717  0.009161970153292976  0.9997800295494182  1.0000
  Pd  Pd11      1.0  0.0016666670309627887  0.002500000101592307  0.9995643362956563  1.0000
  Pd  Pd12      1.0  0.0049707897907507815  0.005804131057052139  0.0  1.0000
  Pd  Pd13      1.0  0.0033427404778113953  0.009161970153292976  0.9997800289746808  1.0000
  Pd  Pd14      1.0  0.006666666679036729  0.002500000101592307  0.9995643362956563  1.0000
  Pd  Pd15      1.0  5.8399508574379564e-05  0.005804124805217851  0.0  1.0000
  Pd  Pd16      1.0  0.008328629910746505  0.004176080730836427  0.9997800289746808  1.0000
  Pd  Pd17      1.0  0.001666666655722541  0.007500000500146743  0.9995643362956563  1.0000
  Pd  Pd18      1.0  0.00497080703752428  0.000891729211475647  0.0  1.0000
