data_image0
_chemical_formula_structural       COSb16Ru8
_chemical_formula_sum              "C1 O1 Sb16 Ru8"
_cell_length_a       9.380650767046827
_cell_length_b       6.865583508662288
_cell_length_c       108.60094451904297
_cell_angle_alpha    113.23097043456755
_cell_angle_beta     106.02350567399358
_cell_angle_gamma    70.96694579404861

_space_group_name_H-M_alt    "P 1"
_space_group_IT_number       1

loop_
  _space_group_symop_operation_xyz
  'x, y, z'

loop_
  _atom_site_type_symbol
  _atom_site_label
  _atom_site_symmetry_multiplicity
  _atom_site_fract_x
  _atom_site_fract_y
  _atom_site_fract_z
  _atom_site_occupancy
  C   C1        1.0  0.003414950740977483  0.00726031882934792  0.00027177734248879157  1.0000
  O   O1        1.0  0.003414950740977483  0.00726031882934792  0.00038227384297356305  1.0000
  Sb  Sb1       1.0  0.009543522554655633  0.0007040670765435493  0.9999082957557248  1.0000
  Sb  Sb2       1.0  0.007043522384146648  0.008204067856861515  0.99968614650498  1.0000
  Sb  Sb3       1.0  0.0021724481488999033  0.003359469777854953  0.0001355684469299531  1.0000
  Sb  Sb4       1.0  0.0045435222136376635  0.0057040673263178  0.9994639976715972  1.0000
  Sb  Sb5       1.0  0.009382146884077899  0.0040395317182261225  0.9996405870851762  1.0000
  Sb  Sb6       1.0  0.0068821471398413745  0.001539531333085227  0.9994184379911623  1.0000
  Sb  Sb7       1.0  0.0018821470119596367  0.006539531507941328  0.9998627358990694  1.0000
  Sb  Sb8       1.0  0.004562916331787022  0.009029367904602506  9.994477241885151e-05  1.0000
  Sb  Sb9       1.0  0.005969191311353225  0.004278398231880569  0.9997816110845338  1.0000
  Sb  Sb10      1.0  0.0034691913539804707  0.0017783979216578216  0.9995594622617268  1.0000
  Sb  Sb11      1.0  0.008517604097781037  0.006740525272631361  1.5531416069630993e-05  1.0000
  Sb  Sb12      1.0  0.001028318903669517  0.009534799750483412  0.0002129038584096552  1.0000
  Sb  Sb13      1.0  0.0004564778076759598  0.007965200639837635  0.999545122484526  1.0000
  Sb  Sb14      1.0  0.009010101395554653  0.004756755261063201  0.0002287459228905111  1.0000
  Sb  Sb15      1.0  0.002956477871616829  0.00046520063507653653  0.9997672714776487  1.0000
  Sb  Sb16      1.0  0.00553068312583072  0.0030695670019872828  0.9999986144091109  1.0000
  Ru  Ru1       1.0  0.008226944252565  0.0009823916426259089  9.320587859903501e-05  1.0000
  Ru  Ru2       1.0  0.0057128344636032885  0.00862179946957227  0.9998855157363817  1.0000
  Ru  Ru3       1.0  0.0007128346021418384  0.0036217994208754714  0.9994412178318747  1.0000
  Ru  Ru4       1.0  0.0032128347193667653  0.006121799379670489  0.9996633669241504  1.0000
  Ru  Ru5       1.0  0.008212834634112274  0.0011217992797325374  0.9996633667330197  1.0000
  Ru  Ru6       1.0  0.0057128344636032885  0.00862179946957227  0.9994412177419713  1.0000
  Ru  Ru7       1.0  0.0007128346021418384  0.0036217994208754714  0.9998855158262852  1.0000
  Ru  Ru8       1.0  0.003078654166107397  0.006311342798874584  9.566425635273376e-05  1.0000
