data_image0
_chemical_formula_structural       COCo4Ga8Ru4Co4Ga8Ru4Co4Ga8Ru4Co4Ga8Ru4
_chemical_formula_sum              "C1 O1 Co16 Ga32 Ru16"
_cell_length_a       8.426613807678223
_cell_length_b       8.426613807678223
_cell_length_c       105.7510986328125
_cell_angle_alpha    90.0
_cell_angle_beta     90.0
_cell_angle_gamma    90.0

_space_group_name_H-M_alt    "P 1"
_space_group_IT_number       1

loop_
  _space_group_symop_operation_xyz
  'x, y, z'

loop_
  _atom_site_type_symbol
  _atom_site_label
  _atom_site_symmetry_multiplicity
  _atom_site_fract_x
  _atom_site_fract_y
  _atom_site_fract_z
  _atom_site_occupancy
  C   C1        1.0  0.0037500007957552927  0.002499998099029023  0.00016378566226929526  1.0000
  O   O1        1.0  0.0037500007957552927  0.002499998099029023  0.00027725932702729844  1.0000
  Co  Co1       1.0  0.0025000005305035287  0.003749996816978829  0.9998665580003272  1.0000
  Co  Co2       1.0  5.0000000257898276e-11  0.0012500000442086275  0.9995870007478893  1.0000
  Co  Co3       1.0  0.002500000088417255  0.0037499999115827454  0.999305276896168  1.0000
  Co  Co4       1.0  5.0000000257898276e-11  0.0012500000442086275  0.9990235533262625  1.0000
  Ga  Ga1       1.0  0.01000000035366902  0.0037499990274101978  0.9997233550312502  1.0000
  Ga  Ga2       1.0  0.01000000035366902  0.003749994164461187  0.0  1.0000
  Ga  Ga3       1.0  0.00250000185676235  0.0012500019230752908  0.0  1.0000
  Ga  Ga4       1.0  0.0025000007515466652  0.0012500008178596065  0.9997233544676188  1.0000
  Ga  Ga5       1.0  5.0000000257898276e-11  0.0037499999115827454  0.9991644152521231  1.0000
  Ga  Ga6       1.0  5.0000000257898276e-11  0.0037499999115827454  0.9994461385402129  1.0000
  Ga  Ga7       1.0  0.002500000088417255  0.0012500000442086275  0.9994461385402129  1.0000
  Ga  Ga8       1.0  0.002500000088417255  0.0012500000442086275  0.9991644152521231  1.0000
  Ru  Ru1       1.0  0.009999997701151377  0.001250010875322334  0.9998787042580164  1.0000
  Ru  Ru2       1.0  0.002500000088417255  0.0037499999115827454  0.9995870007478893  1.0000
  Ru  Ru3       1.0  5.0000000257898276e-11  0.0012500000442086275  0.999305276896168  1.0000
  Ru  Ru4       1.0  0.002500000088417255  0.0037499999115827454  0.9990235533262625  1.0000
  Co  Co5       1.0  0.0025000005305035287  0.008749996993813338  0.9998665580003272  1.0000
  Co  Co6       1.0  5.0000000257898276e-11  0.00625  0.9995870007478893  1.0000
  Co  Co7       1.0  0.002500000088417255  0.008750000530503529  0.999305276896168  1.0000
  Co  Co8       1.0  5.0000000257898276e-11  0.00625  0.9990235533262625  1.0000
  Ga  Ga9       1.0  0.01000000035366902  0.008749998762158434  0.9997233550312502  1.0000
  Ga  Ga10      1.0  0.01000000035366902  0.008749994341295697  0.0  1.0000
  Ga  Ga11      1.0  0.00250000185676235  0.006250002210431369  0.0  1.0000
  Ga  Ga12      1.0  0.0025000007515466652  0.006250000884172548  0.9997233544676188  1.0000
  Ga  Ga13      1.0  5.0000000257898276e-11  0.008750000530503529  0.9991644152521231  1.0000
  Ga  Ga14      1.0  5.0000000257898276e-11  0.008750000530503529  0.9994461385402129  1.0000
  Ga  Ga15      1.0  0.002500000088417255  0.00625  0.9994461385402129  1.0000
  Ga  Ga16      1.0  0.002500000088417255  0.00625  0.9991644152521231  1.0000
  Ru  Ru5       1.0  0.009999997701151377  0.006250011052156844  0.9998787042580164  1.0000
  Ru  Ru6       1.0  0.002500000088417255  0.008750000530503529  0.9995870007478893  1.0000
  Ru  Ru7       1.0  5.0000000257898276e-11  0.00625  0.999305276896168  1.0000
  Ru  Ru8       1.0  0.002500000088417255  0.008750000530503529  0.9990235533262625  1.0000
  Co  Co9       1.0  0.0075000007073380386  0.003749996816978829  0.9998665580003272  1.0000
  Co  Co10      1.0  0.00500000017683451  0.0012500000442086275  0.9995870007478893  1.0000
  Co  Co11      1.0  0.007499999823165491  0.0037499999115827454  0.999305276896168  1.0000
  Co  Co12      1.0  0.00500000017683451  0.0012500000442086275  0.9990235533262625  1.0000
  Ga  Ga17      1.0  0.00500000017683451  0.0037499990274101978  0.9997233550312502  1.0000
  Ga  Ga18      1.0  0.00500000017683451  0.003749994164461187  0.0  1.0000
  Ga  Ga19      1.0  0.007500001591510585  0.0012500019230752908  0.0  1.0000
  Ga  Ga20      1.0  0.0075000007073380386  0.0012500008178596065  0.9997233544676188  1.0000
  Ga  Ga21      1.0  0.00500000017683451  0.0037499999115827454  0.9991644152521231  1.0000
  Ga  Ga22      1.0  0.00500000017683451  0.0037499999115827454  0.9994461385402129  1.0000
  Ga  Ga23      1.0  0.007499999823165491  0.0012500000442086275  0.9994461385402129  1.0000
  Ga  Ga24      1.0  0.007499999823165491  0.0012500000442086275  0.9991644152521231  1.0000
  Ru  Ru9       1.0  0.004999997966403141  0.001250010875322334  0.9998787042580164  1.0000
  Ru  Ru10      1.0  0.007499999823165491  0.0037499999115827454  0.9995870007478893  1.0000
  Ru  Ru11      1.0  0.00500000017683451  0.0012500000442086275  0.999305276896168  1.0000
  Ru  Ru12      1.0  0.007499999823165491  0.0037499999115827454  0.9990235533262625  1.0000
  Co  Co13      1.0  0.0075000007073380386  0.008749996993813338  0.9998665580003272  1.0000
  Co  Co14      1.0  0.00500000017683451  0.00625  0.9995870007478893  1.0000
  Co  Co15      1.0  0.007499999823165491  0.008750000530503529  0.999305276896168  1.0000
  Co  Co16      1.0  0.00500000017683451  0.00625  0.9990235533262625  1.0000
  Ga  Ga25      1.0  0.00500000017683451  0.008749998762158434  0.9997233550312502  1.0000
  Ga  Ga26      1.0  0.00500000017683451  0.008749994341295697  0.0  1.0000
  Ga  Ga27      1.0  0.007500001591510585  0.006250002210431369  0.0  1.0000
  Ga  Ga28      1.0  0.0075000007073380386  0.006250000884172548  0.9997233544676188  1.0000
  Ga  Ga29      1.0  0.00500000017683451  0.008750000530503529  0.9991644152521231  1.0000
  Ga  Ga30      1.0  0.00500000017683451  0.008750000530503529  0.9994461385402129  1.0000
  Ga  Ga31      1.0  0.007499999823165491  0.00625  0.9994461385402129  1.0000
  Ga  Ga32      1.0  0.007499999823165491  0.00625  0.9991644152521231  1.0000
  Ru  Ru13      1.0  0.004999997966403141  0.006250011052156844  0.9998787042580164  1.0000
  Ru  Ru14      1.0  0.007499999823165491  0.008750000530503529  0.9995870007478893  1.0000
  Ru  Ru15      1.0  0.00500000017683451  0.00625  0.999305276896168  1.0000
  Ru  Ru16      1.0  0.007499999823165491  0.008750000530503529  0.9990235533262625  1.0000
