data_image0
_chemical_formula_structural       COGa2Ru2Ga2Ru2Ga2Ru2Ga2Ru2Ga2Ru2Ga2Ru2Ga2Ru2Ga2Ru2
_chemical_formula_sum              "C1 O1 Ga16 Ru16"
_cell_length_a       6.085258960723877
_cell_length_b       8.605854988098145
_cell_length_c       100.12049102783203
_cell_angle_alpha    90.0
_cell_angle_beta     90.0
_cell_angle_gamma    90.0

_space_group_name_H-M_alt    "P 1"
_space_group_IT_number       1

loop_
  _space_group_symop_operation_xyz
  'x, y, z'

loop_
  _atom_site_type_symbol
  _atom_site_label
  _atom_site_symmetry_multiplicity
  _atom_site_fract_x
  _atom_site_fract_y
  _atom_site_fract_z
  _atom_site_occupancy
  C   C1        1.0  0.0037499998530761505  0.00250000042422101  0.00015963691076418312  1.0000
  O   O1        1.0  0.0037499998530761505  0.00250000042422101  0.00027949214310333013  1.0000
  Ga  Ga1       1.0  0.0012499998745025451  0.00250000042422101  0.999349789859295  1.0000
  Ga  Ga2       1.0  0.0012499998745025451  2.5000001730251413e-10  0.999564677480587  1.0000
  Ru  Ru1       1.0  0.0037499998530761505  0.00250000042422101  0.999564677480587  1.0000
  Ru  Ru2       1.0  0.0037499998530761505  2.5000001730251413e-10  0.999349789859295  1.0000
  Ga  Ga3       1.0  0.0012500000275482218  0.00250000042422101  0.9997793612016519  1.0000
  Ga  Ga4       1.0  0.0012500003336395748  0.009999999965369714  0.0  1.0000
  Ru  Ru3       1.0  0.0037499998530761505  0.00250000042422101  0.9999866402190034  1.0000
  Ru  Ru4       1.0  0.0037499998530761505  3.5000002938383457e-10  0.999773896377907  1.0000
  Ga  Ga5       1.0  0.0012499998745025451  0.007500000623345157  0.999349789859295  1.0000
  Ga  Ga6       1.0  0.0012499998745025451  0.005000000415563438  0.999564677480587  1.0000
  Ru  Ru5       1.0  0.0037499998530761505  0.007500000623345157  0.999564677480587  1.0000
  Ru  Ru6       1.0  0.0037499998530761505  0.005000000415563438  0.999349789859295  1.0000
  Ga  Ga7       1.0  0.0012500000275482218  0.007500000623345157  0.9997793612016519  1.0000
  Ga  Ga8       1.0  0.0012500003336395748  0.004999999982684857  0.0  1.0000
  Ru  Ru7       1.0  0.0037499998530761505  0.007500000623345157  0.9999866402190034  1.0000
  Ru  Ru8       1.0  0.0037499998530761505  0.005000000415563438  0.999773896377907  1.0000
  Ga  Ga9       1.0  0.006249999755126918  0.00250000042422101  0.999349789859295  1.0000
  Ga  Ga10      1.0  0.006249999755126918  2.5000001730251413e-10  0.999564677480587  1.0000
  Ru  Ru9       1.0  0.008749999657177683  0.00250000042422101  0.999564677480587  1.0000
  Ru  Ru10      1.0  0.008749999657177683  2.5000001730251413e-10  0.999349789859295  1.0000
  Ga  Ga11      1.0  0.006249999755126918  0.00250000042422101  0.9997793612016519  1.0000
  Ga  Ga12      1.0  0.006250000367309623  0.009999999965369714  0.0  1.0000
  Ru  Ru11      1.0  0.008749999657177683  0.00250000042422101  0.9999866402190034  1.0000
  Ru  Ru12      1.0  0.008749999657177683  3.5000002938383457e-10  0.999773896377907  1.0000
  Ga  Ga13      1.0  0.006249999755126918  0.007500000623345157  0.999349789859295  1.0000
  Ga  Ga14      1.0  0.006249999755126918  0.005000000415563438  0.999564677480587  1.0000
  Ru  Ru13      1.0  0.008749999657177683  0.007500000623345157  0.999564677480587  1.0000
  Ru  Ru14      1.0  0.008749999657177683  0.005000000415563438  0.999349789859295  1.0000
  Ga  Ga15      1.0  0.006249999755126918  0.007500000623345157  0.9997793612016519  1.0000
  Ga  Ga16      1.0  0.006250000367309623  0.004999999982684857  0.0  1.0000
  Ru  Ru15      1.0  0.008749999657177683  0.007500000623345157  0.9999866402190034  1.0000
  Ru  Ru16      1.0  0.008749999657177683  0.005000000415563438  0.999773896377907  1.0000
