data_image0
_chemical_formula_structural       COAu16Se16
_chemical_formula_sum              "C1 O1 Au16 Se16"
_cell_length_a       10.033226204356145
_cell_length_b       12.073704370754774
_cell_length_c       100.3156967163086
_cell_angle_alpha    92.46358479379262
_cell_angle_beta     97.97693581429161
_cell_angle_gamma    110.65087477205364

_space_group_name_H-M_alt    "P 1"
_space_group_IT_number       1

loop_
  _space_group_symop_operation_xyz
  'x, y, z'

loop_
  _atom_site_type_symbol
  _atom_site_label
  _atom_site_symmetry_multiplicity
  _atom_site_fract_x
  _atom_site_fract_y
  _atom_site_fract_z
  _atom_site_occupancy
  C   C1        1.0  0.006430868201231704  0.009031381396105598  0.00014749151268666572  1.0000
  O   O1        1.0  0.006430868201231704  0.009031381396105598  0.00026711351708729337  1.0000
  Au  Au1       1.0  0.009439369581029892  0.006185013192311092  0.9998451633016583  1.0000
  Au  Au2       1.0  0.004078861937113431  0.00143510169898457  0.9996934611825412  1.0000
  Au  Au3       1.0  0.0008858838568879307  0.0036925172656274785  0.9997959651070616  1.0000
  Au  Au4       1.0  0.0063557803686109795  0.008659309143951641  0.9999459614797416  1.0000
  Au  Au5       1.0  0.002006287360039157  0.00147274526764066  0.9999738308530602  1.0000
  Au  Au6       1.0  0.005798309674765159  0.0059774173659896505  0.9997315408391335  1.0000
  Au  Au7       1.0  0.009114217053861536  0.008988790193858218  0.9997375442206781  1.0000
  Au  Au8       1.0  0.004370324568284218  0.003687295591919653  0.9999718366825489  1.0000
  Au  Au9       1.0  0.008453862077908233  0.006435101473655332  0.9995045842134482  1.0000
  Au  Au10      1.0  0.0028288619221165058  0.00143510169898457  0.9993157074861803  1.0000
  Au  Au11      1.0  0.00968443184872238  0.0036769493348959553  0.9994242241346244  1.0000
  Au  Au12      1.0  0.005309431322154053  0.008676949109566718  0.9996131008524214  1.0000
  Au  Au13      1.0  0.000315568759274857  0.0011494818963757388  0.9995620568494349  1.0000
  Au  Au14      1.0  0.004690568814139137  0.006149481422521607  0.9993731798778636  1.0000
  Au  Au15      1.0  0.00782272475838778  0.008962569160700443  0.9993667517913325  1.0000
  Au  Au16      1.0  0.0034477244717753515  0.003962569054663155  0.9995556284596018  1.0000
  Se  Se1       1.0  0.0036980177539817534  0.0005380302591425138  0.9999221225262966  1.0000
  Se  Se2       1.0  0.007329983956627243  0.004908425641266862  0.9996683519216844  1.0000
  Se  Se3       1.0  0.0004907280451536468  0.007720109710843949  0.9996909054560813  1.0000
  Se  Se4       1.0  0.005751504641129832  0.002450523551422486  0.9999216776930527  1.0000
  Se  Se5       1.0  0.0006186814292729682  0.0027117358070256233  2.261624445892289e-05  1.0000
  Se  Se6       1.0  0.004328257697871055  0.007145493646415354  0.9997826774340424  1.0000
  Se  Se7       1.0  0.007512874444710217  6.282039858339007e-05  0.9997827091720651  1.0000
  Se  Se8       1.0  0.0026643911135537995  0.004624874311351435  2.0887374889089158e-05  1.0000
  Se  Se9       1.0  0.0020102309546988334  0.00017487160083953112  0.9995082793921312  1.0000
  Se  Se10      1.0  0.006385231337636801  0.005174871499772741  0.999319402427042  1.0000
  Se  Se11      1.0  0.00924072833759367  0.007720109710843949  0.9993131517639875  1.0000
  Se  Se12      1.0  0.004865728571721974  0.0027201099361731872  0.999502028441199  1.0000
  Se  Se13      1.0  0.008897565214113836  0.0023919410977073377  0.9996156565788813  1.0000
  Se  Se14      1.0  0.0032725648321838136  0.0073919408723781  0.9994267798996185  1.0000
  Se  Se15      1.0  0.006128062234890116  0.009937179083449309  0.9994205292421541  1.0000
  Se  Se16      1.0  0.0017530620940953122  0.004937179308778547  0.9996094059141616  1.0000
