data_image0
_chemical_formula_structural       HV3Ir3V3Ir3V3Ir3V3Ir3
_chemical_formula_sum              "H1 V12 Ir12"
_cell_length_a       4.606850903767031
_cell_length_b       7.790952205657959
_cell_length_c       102.20521545410156
_cell_angle_alpha    90.0
_cell_angle_beta     104.15821726979648
_cell_angle_gamma    64.98903869318058

_space_group_name_H-M_alt    "P 1"
_space_group_IT_number       1

loop_
  _space_group_symop_operation_xyz
  'x, y, z'

loop_
  _atom_site_type_symbol
  _atom_site_label
  _atom_site_symmetry_multiplicity
  _atom_site_fract_x
  _atom_site_fract_y
  _atom_site_fract_z
  _atom_site_occupancy
  H   H1        1.0  0.008914813738456885  0.0038759262489655695  0.00021254461419070028  1.0000
  V   V1        1.0  0.0010851861457042116  0.0008333332858189685  0.9997353511848058  1.0000
  V   V2        1.0  0.004418519285972706  0.002500000110727718  0.999910408622138  1.0000
  V   V3        1.0  0.007751852310402297  0.004166666605979217  8.546605819302697e-05  1.0000
  Ir  Ir1       1.0  0.0010851861457042116  0.0008333332858189685  0.9999979370698996  1.0000
  Ir  Ir2       1.0  0.004418519285972706  0.002500000110727718  0.9996478221538583  1.0000
  Ir  Ir3       1.0  0.007751852310402297  0.004166666605979217  0.9998228795899133  1.0000
  V   V4        1.0  0.0010851861457042116  0.0008333332858189685  0.9992101785398394  1.0000
  V   V5        1.0  0.004418519285972706  0.002500000110727718  0.9993852359771717  1.0000
  V   V6        1.0  0.007751852310402297  0.004166666605979217  0.9995602934132266  1.0000
  Ir  Ir4       1.0  0.0010851861457042116  0.0008333332858189685  0.9994727647165261  1.0000
  Ir  Ir5       1.0  0.004418519285972706  0.002500000110727718  0.9991226498004849  1.0000
  Ir  Ir6       1.0  0.007751852310402297  0.004166666605979217  0.9992977072365399  1.0000
  V   V7        1.0  0.0010851861457042116  0.005833333147153738  0.9997353511848058  1.0000
  V   V8        1.0  0.004418519285972706  0.0075000000916014805  0.999910408622138  1.0000
  V   V9        1.0  0.007751852310402297  0.00916666610869701  8.546605819302697e-05  1.0000
  Ir  Ir7       1.0  0.0010851861457042116  0.005833333147153738  0.9999979370698996  1.0000
  Ir  Ir8       1.0  0.004418519285972706  0.0075000000916014805  0.9996478221538583  1.0000
  Ir  Ir9       1.0  0.007751852310402297  0.00916666610869701  0.9998228795899133  1.0000
  V   V10       1.0  0.0010851861457042116  0.005833333147153738  0.9992101785398394  1.0000
  V   V11       1.0  0.004418519285972706  0.0075000000916014805  0.9993852359771717  1.0000
  V   V12       1.0  0.007751852310402297  0.00916666610869701  0.9995602934132266  1.0000
  Ir  Ir10      1.0  0.0010851861457042116  0.005833333147153738  0.9994727647165261  1.0000
  Ir  Ir11      1.0  0.004418519285972706  0.0075000000916014805  0.9991226498004849  1.0000
  Ir  Ir12      1.0  0.007751852310402297  0.00916666610869701  0.9992977072365399  1.0000
