data_image0
_chemical_formula_structural       HRh8Sn4Ti4
_chemical_formula_sum              "H1 Rh8 Sn4 Ti4"
_cell_length_a       4.515127182006836
_cell_length_b       4.515127182006836
_cell_length_c       108.31212615966797
_cell_angle_alpha    90.0
_cell_angle_beta     90.0
_cell_angle_gamma    90.0

_space_group_name_H-M_alt    "P 1"
_space_group_IT_number       1

loop_
  _space_group_symop_operation_xyz
  'x, y, z'

loop_
  _atom_site_type_symbol
  _atom_site_label
  _atom_site_symmetry_multiplicity
  _atom_site_fract_x
  _atom_site_fract_y
  _atom_site_fract_z
  _atom_site_occupancy
  H   H1        1.0  0.006666670522487915  0.004999997425785529  0.00012406503714563826  1.0000
  Rh  Rh1       1.0  0.005000005263938566  0.0050000089767479  0.9992826781523041  1.0000
  Rh  Rh2       1.0  0.005000005263938566  0.0050000089767479  0.9989879117021281  1.0000
  Rh  Rh3       1.0  5.1500000867378495e-09  8.850000340036612e-09  0.9989879117021281  1.0000
  Rh  Rh4       1.0  5.1500000867378495e-09  8.850000340036612e-09  0.9992826781523041  1.0000
  Rh  Rh5       1.0  0.004999992887907455  0.004999985874823158  0.9998731427180862  1.0000
  Rh  Rh6       1.0  0.005000005263938566  0.0050000089767479  0.9995774443273279  1.0000
  Rh  Rh7       1.0  5.1500000867378495e-09  8.850000340036612e-09  0.9995774443273279  1.0000
  Rh  Rh8       1.0  2.6350000283369537e-08  2.6649999814786248e-08  0.999873160878133  1.0000
  Sn  Sn1       1.0  5.1500000867378495e-09  0.0050000089767479  0.999430061239816  1.0000
  Sn  Sn2       1.0  0.005000005263938566  8.850000340036612e-09  0.99913529478964  1.0000
  Sn  Sn3       1.0  0.009999994851571058  0.005000010214351011  3.0945270012644496e-05  1.0000
  Sn  Sn4       1.0  0.005000005263938566  8.850000340036612e-09  0.9997248274148398  1.0000
  Ti  Ti1       1.0  0.005000005263938566  8.850000340036612e-09  0.999430061239816  1.0000
  Ti  Ti2       1.0  5.1500000867378495e-09  0.0050000089767479  0.99913529478964  1.0000
  Ti  Ti3       1.0  0.005000008564213529  0.009999990726227355  0.0  1.0000
  Ti  Ti4       1.0  5.1500000867378495e-09  0.0050000089767479  0.9997248274148398  1.0000
