data_image0
_chemical_formula_structural       COIn9Ni9In9Ni9
_chemical_formula_sum              "C1 O1 In18 Ni18"
_cell_length_a       10.341203817729552
_cell_length_b       5.333965709047217
_cell_length_c       111.60104370117188
_cell_angle_alpha    67.3779006628848
_cell_angle_beta     98.65791040573897
_cell_angle_gamma    75.05458524801209

_space_group_name_H-M_alt    "P 1"
_space_group_IT_number       1

loop_
  _space_group_symop_operation_xyz
  'x, y, z'

loop_
  _atom_site_type_symbol
  _atom_site_label
  _atom_site_symmetry_multiplicity
  _atom_site_fract_x
  _atom_site_fract_y
  _atom_site_fract_z
  _atom_site_occupancy
  C   C1        1.0  0.009697276363946397  0.0016709563731150728  6.931930666014131e-05  1.0000
  O   O1        1.0  0.009697276363946397  0.0016709563731150728  0.00017684540068867827  1.0000
  In  In1       1.0  0.00030272332534267687  0.009166667513693992  0.9997215994116756  1.0000
  In  In2       1.0  0.0036360565551057013  0.009166667053437707  0.9995145069897611  1.0000
  In  In3       1.0  0.006969389784868726  0.009166667349803597  0.9999286915630055  1.0000
  In  In4       1.0  0.0014138343371989086  0.002500000190311066  0.9998596607852903  1.0000
  In  In5       1.0  0.004747167372767604  0.0025000002479097167  0.9996525683511466  1.0000
  In  In6       1.0  0.008080500602530629  0.0025000005442756073  6.675292439087053e-05  1.0000
  In  In7       1.0  0.0008582788312707927  0.005833333284535898  0.9994799918714244  1.0000
  In  In8       1.0  0.004191611963936652  0.005833333650673712  0.9998941759079448  1.0000
  In  In9       1.0  0.007524944805311019  0.005833334226127299  0.9996870839956588  1.0000
  Ni  Ni1       1.0  0.0008582788312707927  0.0008333333450656716  0.9994799916139501  1.0000
  Ni  Ni2       1.0  0.004191611963936652  0.0008333333328923984  0.9998941761915122  1.0000
  Ni  Ni3       1.0  0.007524944805311019  0.0008333339083459851  0.9996870837451393  1.0000
  Ni  Ni4       1.0  0.00919161142019253  0.0008333336782178432  0.999894175771673  1.0000
  Ni  Ni5       1.0  0.0025249453490551405  0.0008333335630205408  0.9996870841649784  1.0000
  Ni  Ni6       1.0  0.005858278578818165  0.0008333334810753441  0.999479991736109  1.0000
  Ni  Ni7       1.0  0.00919161142019253  0.005833334374310245  0.9998941760152374  1.0000
  Ni  Ni8       1.0  0.0025249453490551405  0.0058333335024907665  0.9996870838883661  1.0000
  Ni  Ni9       1.0  0.005858278578818165  0.0058333337988566575  0.9994799919866284  1.0000
  In  In10      1.0  0.00030272332534267687  0.009166667513693992  0.9991003229366936  1.0000
  In  In11      1.0  0.0036360565551057013  0.009166667053437707  0.998893231048866  1.0000
  In  In12      1.0  0.006969389784868726  0.009166667349803597  0.9993074150880235  1.0000
  In  In13      1.0  0.0014138343371989086  0.002500000190311066  0.9992383843103083  1.0000
  In  In14      1.0  0.004747167372767604  0.0025000002479097167  0.9990312924102515  1.0000
  In  In15      1.0  0.008080500602530629  0.0025000005442756073  0.9994454764494088  1.0000
  In  In16      1.0  0.0008582788312707927  0.005833333284535898  0.9988587156634859  1.0000
  In  In17      1.0  0.004191611963936652  0.005833333650673712  0.9992728999670497  1.0000
  In  In18      1.0  0.007524944805311019  0.005833334226127299  0.9990658075206768  1.0000
  Ni  Ni10      1.0  0.0008582788312707927  0.0008333333450656716  0.9988587156730548  1.0000
  Ni  Ni11      1.0  0.004191611963936652  0.0008333333328923984  0.9992728997165302  1.0000
  Ni  Ni12      1.0  0.007524944805311019  0.0008333339083459851  0.9990658078042441  1.0000
  Ni  Ni13      1.0  0.00919161142019253  0.0008333336782178432  0.9992728998307778  1.0000
  Ni  Ni14      1.0  0.0025249453490551405  0.0008333335630205408  0.9990658076899964  1.0000
  Ni  Ni15      1.0  0.005858278578818165  0.0008333334810753441  0.9988587157952138  1.0000
  Ni  Ni16      1.0  0.00919161142019253  0.005833334374310245  0.9992729000743423  1.0000
  Ni  Ni17      1.0  0.0025249453490551405  0.0058333335024907665  0.9990658079474709  1.0000
  Ni  Ni18      1.0  0.005858278578818165  0.0058333337988566575  0.9988587157786899  1.0000
