data_image0
_chemical_formula_structural       Si16Pt16H
_chemical_formula_sum              "Si16 Pt16 H1"
_cell_length_a       6.755360623728806
_cell_length_b       9.449346492679908
_cell_length_c       106.14514923095703
_cell_angle_alpha    83.69024410419635
_cell_angle_beta     71.8655539110665
_cell_angle_gamma    65.3382739180407

_space_group_name_H-M_alt    "P 1"
_space_group_IT_number       1

loop_
  _space_group_symop_operation_xyz
  'x, y, z'

loop_
  _atom_site_type_symbol
  _atom_site_label
  _atom_site_symmetry_multiplicity
  _atom_site_fract_x
  _atom_site_fract_y
  _atom_site_fract_z
  _atom_site_occupancy
  Si  Si1       1.0  0.001507650414077392  0.005633794466029954  0.9995142921599554  1.0000
  Si  Si2       1.0  0.009137429420503624  0.003168296886193468  0.9997381048599494  1.0000
  Si  Si3       1.0  0.0040076505933934  0.008133794535457574  0.9993014634590739  1.0000
  Si  Si4       1.0  0.006507650345585441  0.0006337943271747146  0.9990886348816782  1.0000
  Si  Si5       1.0  0.0032968035110405272  0.009366205950535764  0.999881672969212  1.0000
  Si  Si6       1.0  0.000913577590997259  0.006943056181329835  0.9992609793599386  1.0000
  Si  Si7       1.0  0.005769197406454518  0.0019427494761408374  0.9997022319083004  1.0000
  Si  Si8       1.0  0.008413577121541184  0.004443056111902216  0.9994738079093364  1.0000
  Si  Si9       1.0  0.006090793853652106  0.008550650982523013  0.9995497798102408  1.0000
  Si  Si10      1.0  0.003644652137160033  0.006059298990988961  0.999764544377533  1.0000
  Si  Si11      1.0  0.008590794314844406  0.0010506505572788415  0.9993369512209235  1.0000
  Si  Si12      1.0  0.0010907942040203498  0.0035506506267064613  0.9991241226830203  1.0000
  Si  Si13      1.0  0.008890313461834871  0.0066421234649969825  0.9998600145529212  1.0000
  Si  Si14      1.0  0.00633043360384222  0.004026200098759401  0.9992254921205626  1.0000
  Si  Si15      1.0  0.0012781584446172228  0.009147839597148735  0.9996457292375416  1.0000
  Si  Si16      1.0  0.003830434133526472  0.0015261998123704689  0.9994383202479833  1.0000
  Pt  Pt1       1.0  0.006939604171245991  0.009105943499969618  0.999741205428699  1.0000
  Pt  Pt2       1.0  0.004578266152065097  0.006644516114344957  0.9990964722308354  1.0000
  Pt  Pt3       1.0  0.009578265729073015  0.0016445160839703734  0.9995221294755808  1.0000
  Pt  Pt4       1.0  0.0020782662628891536  0.004144516044917337  0.9993093009259696  1.0000
  Pt  Pt5       1.0  0.007752735601396606  0.005966054660115143  0.9996757619175344  1.0000
  Pt  Pt6       1.0  0.0054647619254743485  0.0036535091641958766  0.9998560048069935  1.0000
  Pt  Pt7       1.0  0.00034296228976582173  0.008432334168519828  0.999465971148862  1.0000
  Pt  Pt8       1.0  0.0028429621390177327  0.0009323342856789372  0.9992531425663596  1.0000
  Pt  Pt9       1.0  0.0006364643320049048  0.008400568428917392  0.999866548950385  1.0000
  Pt  Pt10      1.0  0.007764190508794776  0.005958591624907342  0.999250907071638  1.0000
  Pt  Pt11      1.0  0.0027611024511844874  0.0010401011389281664  0.9996771258684606  1.0000
  Pt  Pt12      1.0  0.005264190619618832  0.003458591555479722  0.999463735766772  1.0000
  Pt  Pt13      1.0  0.004657037206139809  0.0066182590224524475  0.9995243648583114  1.0000
  Pt  Pt14      1.0  0.0019397530334972059  0.004265435960741069  0.9997315324048047  1.0000
  Pt  Pt15      1.0  0.007157037675595883  0.009118259091880068  0.9993115361516827  1.0000
  Pt  Pt16      1.0  0.009657037427787923  0.0016182588835972082  0.999098707574287  1.0000
  H   H1        1.0  0.0019397530334972059  0.004265435960741069  0.9998728481955268  1.0000
