data_image0
_chemical_formula_structural       HHf18
_chemical_formula_sum              "H1 Hf18"
_cell_length_a       5.09865665435791
_cell_length_b       8.501534345021001
_cell_length_c       102.13278198242188
_cell_angle_alpha    79.10660498470263
_cell_angle_beta     90.0
_cell_angle_gamma    90.0

_space_group_name_H-M_alt    "P 1"
_space_group_IT_number       1

loop_
  _space_group_symop_operation_xyz
  'x, y, z'

loop_
  _atom_site_type_symbol
  _atom_site_label
  _atom_site_symmetry_multiplicity
  _atom_site_fract_x
  _atom_site_fract_y
  _atom_site_fract_z
  _atom_site_occupancy
  H   H1        1.0  0.005000000277643781  0.0028805913573796502  9.802479988233194e-05  1.0000
  Hf  Hf1       1.0  0.0025000001388218907  0.005555555803461783  0.9991260616598959  1.0000
  Hf  Hf2       1.0  0.0025000001388218907  0.002222222276761592  0.9993358069103148  1.0000
  Hf  Hf3       1.0  0.0025000001388218907  0.008888889107046369  0.9992309343424124  1.0000
  Hf  Hf4       1.0  0.00750000023380529  0.007777777857107771  0.9990911041407716  1.0000
  Hf  Hf5       1.0  0.00750000023380529  0.004444444553523184  0.9993008493876806  1.0000
  Hf  Hf6       1.0  0.00750000023380529  0.001111111138380796  0.9991959767069192  1.0000
  Hf  Hf7       1.0  0.0025000001388218907  0.005555555803461783  0.9994406795893214  1.0000
  Hf  Hf8       1.0  0.0025000001388218907  0.002222222276761592  0.9996504245479404  1.0000
  Hf  Hf9       1.0  0.0025000001388218907  0.008888889107046369  0.999545551980038  1.0000
  Hf  Hf10      1.0  0.00750000023380529  0.007777777857107771  0.9994057220701971  1.0000
  Hf  Hf11      1.0  0.00750000023380529  0.004444444553523184  0.9996154670253063  1.0000
  Hf  Hf12      1.0  0.00750000023380529  0.001111111138380796  0.9995105946363445  1.0000
  Hf  Hf13      1.0  0.0025000001388218907  0.005555555803461783  0.9997552969351473  1.0000
  Hf  Hf14      1.0  0.0025000001388218907  0.002222222276761592  0.9999650424773658  1.0000
  Hf  Hf15      1.0  0.0025000001388218907  0.008888889107046369  0.9998601699094635  1.0000
  Hf  Hf16      1.0  0.00750000023380529  0.007777777857107771  0.999720339416023  1.0000
  Hf  Hf17      1.0  0.00750000023380529  0.004444444553523184  0.9999300849547318  1.0000
  Hf  Hf18      1.0  0.00750000023380529  0.001111111138380796  0.9998252119821704  1.0000
