data_image0
_chemical_formula_structural       COCa3Si6Ca3Si6
_chemical_formula_sum              "C1 O1 Ca6 Si12"
_cell_length_a       5.964332379911542
_cell_length_b       7.165424823760986
_cell_length_c       105.78599548339844
_cell_angle_alpha    90.0
_cell_angle_beta     106.16139639171757
_cell_angle_gamma    53.080697647196665

_space_group_name_H-M_alt    "P 1"
_space_group_IT_number       1

loop_
  _space_group_symop_operation_xyz
  'x, y, z'

loop_
  _atom_site_type_symbol
  _atom_site_label
  _atom_site_symmetry_multiplicity
  _atom_site_fract_x
  _atom_site_fract_y
  _atom_site_fract_z
  _atom_site_occupancy
  C   C1        1.0  0.002917189176110489  0.0010342645084301782  0.00016012102414317235  1.0000
  O   O1        1.0  0.002917189176110489  0.0010342645084301782  0.0002735578194756726  1.0000
  Ca  Ca1       1.0  0.009997554038762235  0.0008363635835076184  3.64676215154252e-05  1.0000
  Ca  Ca2       1.0  0.00333577926956945  0.004166666602710687  0.9996462704145602  1.0000
  Ca  Ca3       1.0  0.006540971597514375  0.007564709185466195  0.9998259427715888  1.0000
  Si  Si1       1.0  2.4459500146942393e-06  0.009166666283882576  0.999740239292324  1.0000
  Si  Si2       1.0  0.003138768574291084  0.002581193354926371  0.9999344574511219  1.0000
  Si  Si3       1.0  0.00680053787479004  0.005812907599681446  0.00010672320111776018  1.0000
  Si  Si4       1.0  2.4459500146942393e-06  0.002499999981144536  0.999740239292324  1.0000
  Si  Si5       1.0  0.003140235962687994  0.005949361246358699  0.9999344269520333  1.0000
  Si  Si6       1.0  0.00679904902664517  0.009057147184293405  0.00010666264870305734  1.0000
  Ca  Ca4       1.0  2.4459500146942393e-06  0.0008333333404727708  0.9994583334146984  1.0000
  Ca  Ca5       1.0  0.00333577926956945  0.004166666602710687  0.9990824592227545  1.0000
  Ca  Ca6       1.0  0.00666911296125974  0.007500000068804364  0.9992703965101792  1.0000
  Si  Si7       1.0  2.4459500146942393e-06  0.009166666283882576  0.9991764278187956  1.0000
  Si  Si8       1.0  0.00333577926956945  0.0025000000920134316  0.9993643648186574  1.0000
  Si  Si9       1.0  0.00666911296125974  0.005833332778260053  0.999552302106082  1.0000
  Si  Si10      1.0  2.4459500146942393e-06  0.002499999981144536  0.9991764278187956  1.0000
  Si  Si11      1.0  0.00333577926956945  0.005833333373356961  0.9993643648186574  1.0000
  Si  Si12      1.0  0.00666911296125974  0.009166666319552602  0.999552302106082  1.0000
