data_image0
_chemical_formula_structural       HGe12Pt6Ge12Pt6
_chemical_formula_sum              "H1 Ge24 Pt12"
_cell_length_a       6.3257951736450195
_cell_length_b       8.40747330719187
_cell_length_c       109.62811279296875
_cell_angle_alpha    72.65105471806235
_cell_angle_beta     90.0
_cell_angle_gamma    90.0

_space_group_name_H-M_alt    "P 1"
_space_group_IT_number       1

loop_
  _space_group_symop_operation_xyz
  'x, y, z'

loop_
  _atom_site_type_symbol
  _atom_site_label
  _atom_site_symmetry_multiplicity
  _atom_site_fract_x
  _atom_site_fract_y
  _atom_site_fract_z
  _atom_site_occupancy
  H   H1        1.0  0.0006751373145477958  0.009331716189280113  0.999939333686359  1.0000
  Ge  Ge1       1.0  0.0068731040096474075  0.0005846398667515804  0.9987190693463958  1.0000
  Ge  Ge2       1.0  0.0068731040096474075  0.007251306056827909  0.998919890233929  1.0000
  Ge  Ge3       1.0  0.0068731040096474075  0.003917973193895428  0.9991207113390334  1.0000
  Ge  Ge4       1.0  0.004322814660526328  0.0027980783547047828  0.9989857723395069  1.0000
  Ge  Ge5       1.0  0.004322814660526328  0.009464744312675426  0.999186593232348  1.0000
  Ge  Ge6       1.0  0.004322814660526328  0.006131411449742947  0.9987849512290946  1.0000
  Ge  Ge7       1.0  0.009322814919644382  0.003917973193895428  0.9988194800567037  1.0000
  Ge  Ge8       1.0  0.009322814919644382  0.0005846398667515804  0.9990203006287254  1.0000
  Ge  Ge9       1.0  0.009322814919644382  0.007251306056827909  0.9992211215162586  1.0000
  Ge  Ge10      1.0  0.0018731041922078545  0.0027980783547047828  0.9986845410571772  1.0000
  Ge  Ge11      1.0  0.0018731041922078545  0.009464744312675426  0.9988853619500184  1.0000
  Ge  Ge12      1.0  0.0018731041922078545  0.006131411449742947  0.9990861825114242  1.0000
  Pt  Pt1       1.0  0.0005979594440342317  0.0033580256582472637  0.9990532415700748  1.0000
  Pt  Pt2       1.0  0.0005979594440342317  2.4692499742701563e-05  0.9992540626819384  1.0000
  Pt  Pt3       1.0  0.0005979594440342317  0.006691358985391112  0.9988524209980532  1.0000
  Pt  Pt4       1.0  0.005597959335086868  0.0033580256582472637  0.9987520102877452  1.0000
  Pt  Pt5       1.0  0.005597959335086868  2.4692499742701563e-05  0.9989528313996088  1.0000
  Pt  Pt6       1.0  0.005597959335086868  0.006691358985391112  0.9991536522803828  1.0000
  Ge  Ge13      1.0  0.0068731040096474075  0.0005846398667515804  0.999321531911055  1.0000
  Ge  Ge14      1.0  0.0068731040096474075  0.007251306056827909  0.9995223533422868  1.0000
  Ge  Ge15      1.0  0.007035521561109572  0.0038157009304964616  0.9997333990615799  1.0000
  Ge  Ge16      1.0  0.004341724094922311  0.0026630032912808833  0.9996034690026837  1.0000
  Ge  Ge17      1.0  0.004241272564753884  0.00911714841061752  0.9997915047303673  1.0000
  Ge  Ge18      1.0  0.004322814660526328  0.006131411449742947  0.9993874143374524  1.0000
  Ge  Ge19      1.0  0.009322814919644382  0.003917973193895428  0.999421942621363  1.0000
  Ge  Ge20      1.0  0.009267865991906923  0.0007444986528920323  0.9996030243204341  1.0000
  Ge  Ge21      1.0  0.009402040264457958  0.007260919410054346  0.9998150679421925  1.0000
  Ge  Ge22      1.0  0.0018731041922078545  0.0027980783547047828  0.9992870036218365  1.0000
  Ge  Ge23      1.0  0.0018731041922078545  0.009464744312675426  0.9994878245146777  1.0000
  Ge  Ge24      1.0  0.002057867436796301  0.00587109099861922  0.9997001461073952  1.0000
  Pt  Pt7       1.0  0.0006021866385384753  0.0033604743732151255  0.999652441402376  1.0000
  Pt  Pt8       1.0  0.0006751373145477958  0.009975307186116762  0.9998194187743558  1.0000
  Pt  Pt9       1.0  0.0005979594440342317  0.006691358985391112  0.9994548835627124  1.0000
  Pt  Pt10      1.0  0.005597959335086868  0.0033580256582472637  0.999354473396103  1.0000
  Pt  Pt11      1.0  0.005597959335086868  2.4692499742701563e-05  0.999555293964268  1.0000
  Pt  Pt12      1.0  0.005796986145155558  0.006545325052089715  0.9997505073150605  1.0000
