data_image0
_chemical_formula_structural       HGa18Ni26
_chemical_formula_sum              "H1 Ga18 Ni26"
_cell_length_a       6.430615229036018
_cell_length_b       6.430615341882696
_cell_length_c       105.05586242675781
_cell_angle_alpha    94.2410635481859
_cell_angle_beta     93.89461340781271
_cell_angle_gamma    103.09612731816192

_space_group_name_H-M_alt    "P 1"
_space_group_IT_number       1

loop_
  _space_group_symop_operation_xyz
  'x, y, z'

loop_
  _atom_site_type_symbol
  _atom_site_label
  _atom_site_symmetry_multiplicity
  _atom_site_fract_x
  _atom_site_fract_y
  _atom_site_fract_z
  _atom_site_occupancy
  H   H1        1.0  0.0055549814086664805  0.005206112753725461  0.00013746371413221627  1.0000
  Ga  Ga1       1.0  0.004638440978390066  0.002939107442396895  0.9989668243717136  1.0000
  Ga  Ga2       1.0  0.0029457675453020502  0.005867591224189749  0.9993791991277872  1.0000
  Ga  Ga3       1.0  0.008738075970044267  0.001659899931639677  0.9993791990642826  1.0000
  Ga  Ga4       1.0  0.0004307494394868274  0.0087314155824074  0.9989668244221007  1.0000
  Ga  Ga5       1.0  0.0004350110173434126  0.003327233618370301  0.9990977594133944  1.0000
  Ga  Ga6       1.0  0.002941505690215974  0.0012717736063401072  0.999248264293258  1.0000
  Ga  Ga7       1.0  0.005276770696699851  0.00837630960240344  0.999061332603242  1.0000
  Ga  Ga8       1.0  0.00809974597997334  0.006222697801498365  0.999284690959416  1.0000
  Ga  Ga9       1.0  0.008688258300410374  0.004299503439136854  0.9988393239318962  1.0000
  Ga  Ga10      1.0  0.0006384409152605198  0.008939107370720336  0.9996342000672973  1.0000
  Ga  Ga11      1.0  0.008977844204501413  0.001848467070164279  5.0113891373111505e-05  1.0000
  Ga  Ga12      1.0  0.004769072078642624  0.007639183094615351  5.0176566363928306e-05  1.0000
  Ga  Ga13      1.0  0.0064307494504188215  0.0047314159288441  0.999634200003576  1.0000
  Ga  Ga14      1.0  0.00643501087002015  0.009327233546693743  0.9997651348362946  1.0000
  Ga  Ga15      1.0  0.008895840197892428  0.0072821824642439106  0.9999080963155427  1.0000
  Ga  Ga16      1.0  0.00127677059840798  0.004376309351535484  0.9997287081702121  1.0000
  Ga  Ga17      1.0  0.004039557991244651  0.002297282385667288  0.9999568718129347  1.0000
  Ga  Ga18      1.0  0.004688258301239359  0.0002995036922447015  0.9995066995015598  1.0000
  Ni  Ni1       1.0  0.000983636557139316  0.008911401394271533  0.9993993059113345  1.0000
  Ni  Ni2       1.0  0.007621994261143863  0.0009167200398196733  0.9989467175479688  1.0000
  Ni  Ni3       1.0  0.0023928804214699683  0.005687606009630272  0.9989467173575508  1.0000
  Ni  Ni4       1.0  0.005754522106644138  0.0036822873342168983  0.9993993061692941  1.0000
  Ni  Ni5       1.0  0.007911975617825742  0.0057182782009986555  0.9990537155457909  1.0000
  Ni  Ni6       1.0  0.0054645415005117924  0.008880728605598494  0.9992923080159994  1.0000
  Ni  Ni7       1.0  0.001155696479554516  0.001807334879667482  0.9988310716899207  1.0000
  Ni  Ni8       1.0  0.0062208204201125265  0.006791672297258553  0.998847576165119  1.0000
  Ni  Ni9       1.0  0.0042872658625039495  0.0048985110102839615  0.9991730117235275  1.0000
  Ni  Ni10      1.0  0.0036882583737956895  0.00929950308075406  0.9988393239887337  1.0000
  Ni  Ni11      1.0  0.0016882584700253695  0.0072995037019509025  0.9991730119180432  1.0000
  Ni  Ni12      1.0  0.006688258456844417  0.002299503612355204  0.9991730118594283  1.0000
  Ni  Ni13      1.0  0.009089250965510418  0.009700495796313187  0.9991730118370558  1.0000
  Ni  Ni14      1.0  0.007130311772103099  0.004915875552578483  5.0260927473373394e-05  1.0000
  Ni  Ni15      1.0  0.003621994453591985  0.006916719818816951  0.9996140929602585  1.0000
  Ni  Ni16      1.0  0.00839288032816547  0.0016876059080884799  0.9996140932202455  1.0000
  Ni  Ni17      1.0  0.001698655912261806  0.009484089930380081  4.99945037243063e-05  1.0000
  Ni  Ni18      1.0  0.0039119752805565015  0.0017182782487830278  0.9997210913968  1.0000
  Ni  Ni19      1.0  0.001374105814248594  0.004993743771307052  0.9999671421187772  1.0000
  Ni  Ni20      1.0  0.007155696407901841  0.007807334509338596  0.9994984473954643  1.0000
  Ni  Ni21      1.0  0.002220820373166453  0.002791672345042926  0.9995149517336545  1.0000
  Ni  Ni22      1.0  0.00031174153939484615  0.0009371258334311321  0.9998395095546604  1.0000
  Ni  Ni23      1.0  0.009688258599380262  0.0052995037258430884  0.9995066998561339  1.0000
  Ni  Ni24      1.0  0.007687804147819261  0.00328618833570089  0.9998382468049114  1.0000
  Ni  Ni25      1.0  0.002691850072937168  0.008291163823751356  0.9998381423810089  1.0000
  Ni  Ni26      1.0  0.0050443029943917  0.005672274393730996  0.9998394424411332  1.0000
