data_image0
_chemical_formula_structural       COTi6Cu18Ti6Cu18
_chemical_formula_sum              "C1 O1 Ti12 Cu36"
_cell_length_a       5.494524955749512
_cell_length_b       9.808372997297438
_cell_length_c       107.53691101074219
_cell_angle_alpha    106.98497135752633
_cell_angle_beta     90.0
_cell_angle_gamma    90.0

_space_group_name_H-M_alt    "P 1"
_space_group_IT_number       1

loop_
  _space_group_symop_operation_xyz
  'x, y, z'

loop_
  _atom_site_type_symbol
  _atom_site_label
  _atom_site_symmetry_multiplicity
  _atom_site_fract_x
  _atom_site_fract_y
  _atom_site_fract_z
  _atom_site_occupancy
  C   C1        1.0  0.006175610334904877  0.0033023974970936487  0.0001440136970458655  1.0000
  O   O1        1.0  0.006175610334904877  0.0033023974970936487  0.00025560351495960813  1.0000
  Ti  Ti1       1.0  0.006175633386919595  0.002786312176482519  0.9994013771734909  1.0000
  Ti  Ti2       1.0  0.006175633386919595  0.009452978737248017  0.9990135321119781  1.0000
  Ti  Ti3       1.0  0.006175633386919595  0.006119645456865268  0.9992074546427345  1.0000
  Ti  Ti4       1.0  0.0011756330885994044  0.0021909004600600946  0.9990412149952743  1.0000
  Ti  Ti5       1.0  0.0011756330885994044  0.008857566623696208  0.9992351377218402  1.0000
  Ti  Ti6       1.0  0.0011756330885994044  0.005524233740442843  0.999429059986042  1.0000
  Cu  Cu1       1.0  0.003706577177516091  0.000547021054259057  0.9994317118756182  1.0000
  Cu  Cu2       1.0  0.003706577177516091  0.007213687664665728  0.9990438665382922  1.0000
  Cu  Cu3       1.0  0.003706577177516091  0.003880354384282979  0.9992377890690486  1.0000
  Cu  Cu4       1.0  0.0036446889590026916  0.004430191532642383  0.9990108805689601  1.0000
  Cu  Cu5       1.0  0.0036446889590026916  0.0010968583515419805  0.9992048033794976  1.0000
  Cu  Cu6       1.0  0.0036446889590026916  0.0077635252101545165  0.9993987258474448  1.0000
  Cu  Cu7       1.0  0.0011756330885994044  0.0027196760501244635  0.9993936238919819  1.0000
  Cu  Cu8       1.0  0.0011756330885994044  0.009386342809454653  0.9990057785586239  1.0000
  Cu  Cu9       1.0  0.0011756330885994044  0.006053009529071904  0.999199701366516  1.0000
  Cu  Cu10      1.0  0.006175633386919595  0.00225753658641815  0.9990489682767832  1.0000
  Cu  Cu11      1.0  0.006175633386919595  0.00892420334574834  0.999242891019221  1.0000
  Cu  Cu12      1.0  0.006175633386919595  0.005590869668236207  0.9994368138165319  1.0000
  Cu  Cu13      1.0  0.008706577136836065  0.004430191532642383  0.9990108805689601  1.0000
  Cu  Cu14      1.0  0.008706577136836065  0.0010968583515419805  0.9992048033794976  1.0000
  Cu  Cu15      1.0  0.008706577136836065  0.0077635252101545165  0.9993987258474448  1.0000
  Cu  Cu16      1.0  0.008644689257322882  0.000547021054259057  0.9994317118756182  1.0000
  Cu  Cu17      1.0  0.008644689257322882  0.007213687664665728  0.9990438665382922  1.0000
  Cu  Cu18      1.0  0.008644689257322882  0.003880354384282979  0.9992377890690486  1.0000
  Ti  Ti7       1.0  0.006175610334904877  0.0027630171625340643  0.9999756019994052  1.0000
  Ti  Ti8       1.0  0.006175633386919595  0.009452978737248017  0.999595299910638  1.0000
  Ti  Ti9       1.0  0.006175658472935611  0.0061516735445239865  0.9997941255874864  1.0000
  Ti  Ti10      1.0  0.0011756330885994044  0.0021909004600600946  0.9996229827939342  1.0000
  Ti  Ti11      1.0  0.0011756393601034085  0.00883512484222844  0.9998184237867352  1.0000
  Ti  Ti12      1.0  0.001175638258352705  0.0055242079270329085  4.014545941327991e-06  1.0000
  Cu  Cu19      1.0  0.003526890112792369  0.0005691337147501605  1.5164087952515506e-05  1.0000
  Cu  Cu20      1.0  0.003706577177516091  0.007213687664665728  0.9996256340598164  1.0000
  Cu  Cu21      1.0  0.003681177925299583  0.0038638830459683934  0.9998202731045895  1.0000
  Cu  Cu22      1.0  0.0036446889590026916  0.004430191532642383  0.9995926486447558  1.0000
  Cu  Cu23      1.0  0.003654843032485702  0.0010896420142300673  0.9997852534566574  1.0000
  Cu  Cu24      1.0  0.003651784233532769  0.007837425428632864  0.9999875674956138  1.0000
  Cu  Cu25      1.0  0.001175652072611525  0.0027038309848478304  0.9999760176396407  1.0000
  Cu  Cu26      1.0  0.0011756330885994044  0.009386342809454653  0.9995875466344196  1.0000
  Cu  Cu27      1.0  0.0011756354616009193  0.006034464778245494  0.9997822773168116  1.0000
  Cu  Cu28      1.0  0.006175633386919595  0.00225753658641815  0.9996307360754433  1.0000
  Cu  Cu29      1.0  0.006175610334904877  0.0089904977422718  0.9998299719594956  1.0000
  Cu  Cu30      1.0  0.006175627284915699  0.005626568025658244  9.749875882754318e-06  1.0000
  Cu  Cu31      1.0  0.008706577136836065  0.004430191532642383  0.9995926486447558  1.0000
  Cu  Cu32      1.0  0.00869641865635024  0.0010896461840885952  0.9997852546763027  1.0000
  Cu  Cu33      1.0  0.008699457454290405  0.007837442108066976  0.9999875729284667  1.0000
  Cu  Cu34      1.0  0.008824366830040545  0.0005691389270733204  1.515812984399126e-05  1.0000
  Cu  Cu35      1.0  0.008644689257322882  0.007213687664665728  0.9996256340598164  1.0000
  Cu  Cu36      1.0  0.008670100713547183  0.0038638802660627084  0.9998202724762498  1.0000
