data_image0
_chemical_formula_structural       CONb6Sb12
_chemical_formula_sum              "C1 O1 Nb6 Sb12"
_cell_length_a       7.630691759280502
_cell_length_b       5.525524503224937
_cell_length_c       100.8570327758789
_cell_angle_alpha    92.7046966277745
_cell_angle_beta     93.33194647510636
_cell_angle_gamma    78.40461777476794

_space_group_name_H-M_alt    "P 1"
_space_group_IT_number       1

loop_
  _space_group_symop_operation_xyz
  'x, y, z'

loop_
  _atom_site_type_symbol
  _atom_site_label
  _atom_site_symmetry_multiplicity
  _atom_site_fract_x
  _atom_site_fract_y
  _atom_site_fract_z
  _atom_site_occupancy
  C   C1        1.0  0.004010510379563398  0.003742770179905747  4.1511594213486815e-05  1.0000
  O   O1        1.0  0.004010510379563398  0.003742770179905747  0.000160491544186001  1.0000
  Nb  Nb1       1.0  0.0038951957137246603  0.0036265125067757313  0.9998693736867882  1.0000
  Nb  Nb2       1.0  0.007223839733011036  0.005276099387305214  0.9997646881537232  1.0000
  Nb  Nb3       1.0  0.002696034562676218  0.0014076967681125503  0.9995362924644422  1.0000
  Nb  Nb4       1.0  0.0061661286373444505  0.002994691851894364  0.9994331453634632  1.0000
  Nb  Nb5       1.0  0.0015849234826131244  0.009185474213395408  0.9991963500716439  1.0000
  Nb  Nb6       1.0  0.005055017557281357  0.0007724695874051071  0.9990932026995636  1.0000
  Sb  Sb1       1.0  0.00472493482763858  0.008329919816140296  0.9999601477924852  1.0000
  Sb  Sb2       1.0  0.0070961058047033  0.003994583547427466  4.15308467992976e-05  1.0000
  Sb  Sb3       1.0  0.0007501957561983481  0.0015654410932080217  0.999782658266976  1.0000
  Sb  Sb4       1.0  0.0003756655370435388  0.006729789905145402  0.999898220365308  1.0000
  Sb  Sb5       1.0  0.00376572082327484  0.006116457945699451  0.9996223976963462  1.0000
  Sb  Sb6       1.0  0.006207553456808922  0.0005081529387967206  0.9996869827954586  1.0000
  Sb  Sb7       1.0  0.009624334121151053  0.009491847553833728  0.9994340559394048  1.0000
  Sb  Sb8       1.0  0.009237828549944458  0.004910541805265508  0.9995353819235443  1.0000
  Sb  Sb9       1.0  0.0026546097432117465  0.0038942358499473363  0.9992824550328829  1.0000
  Sb  Sb10      1.0  0.005096442376745829  0.008285930890291006  0.9993470401084782  1.0000
  Sb  Sb11      1.0  0.00851322304108796  0.007269624783133044  0.9990941132741965  1.0000
  Sb  Sb12      1.0  0.008126717469881365  0.0026883193720391085  0.9991954395546992  1.0000
