data_image0
_chemical_formula_structural       COAu8Ga16Au8Ga16
_chemical_formula_sum              "C1 O1 Au16 Ga32"
_cell_length_a       8.850903511047363
_cell_length_b       10.84009838104248
_cell_length_c       100.66043090820312
_cell_angle_alpha    90.0
_cell_angle_beta     90.0
_cell_angle_gamma    90.0

_space_group_name_H-M_alt    "P 1"
_space_group_IT_number       1

loop_
  _space_group_symop_operation_xyz
  'x, y, z'

loop_
  _atom_site_type_symbol
  _atom_site_label
  _atom_site_symmetry_multiplicity
  _atom_site_fract_x
  _atom_site_fract_y
  _atom_site_fract_z
  _atom_site_occupancy
  C   C1        1.0  0.0008333382367459537  0.0026830003451649457  0.00012263013989033002  1.0000
  O   O1        1.0  0.0008333382367459537  0.0026830003451649457  0.00024184306407936358  1.0000
  Au  Au1       1.0  1.94999986902517e-09  0.0038416882808522497  0.9999789063463997  1.0000
  Au  Au2       1.0  4.999999905390416e-11  0.0038007977486936143  0.9992383315756216  1.0000
  Au  Au3       1.0  4.999999905390416e-11  0.00046746423150306504  0.9994921585800876  1.0000
  Au  Au4       1.0  0.009999997811352307  0.0071596426144532955  0.9997426329116543  1.0000
  Au  Au5       1.0  0.002499999873731864  0.007134130793353936  0.9993652449298206  1.0000
  Au  Au6       1.0  0.002499999873731864  0.0038007977486936143  0.9996190722303544  1.0000
  Au  Au7       1.0  0.002500005976691778  0.00036586902966201525  0.9998805993687624  1.0000
  Au  Au8       1.0  0.002499999873731864  0.00046746423150306504  0.9991114179253547  1.0000
  Ga  Ga1       1.0  4.999999905390416e-11  0.006300797789932616  0.9992383315756216  1.0000
  Ga  Ga2       1.0  4.999999905390416e-11  0.0029674640579555995  0.9994921585800876  1.0000
  Ga  Ga3       1.0  6.8499996634152665e-09  0.009626199543586523  0.9997488065195043  1.0000
  Ga  Ga4       1.0  0.009999993602414436  0.0062539282898408126  0.0  1.0000
  Ga  Ga5       1.0  0.002499999873731864  0.004634130752114934  0.9993652449298206  1.0000
  Ga  Ga6       1.0  0.002499999873731864  0.0013007976215400258  0.9996190722303544  1.0000
  Ga  Ga7       1.0  0.002499994402112631  0.007890337928435838  0.9998901126225238  1.0000
  Ga  Ga8       1.0  0.002499999873731864  0.007967463796775256  0.9991114179253547  1.0000
  Ga  Ga9       1.0  0.002499999873731864  0.006300797789932616  0.9996190722303544  1.0000
  Ga  Ga10      1.0  0.0025000034513290546  0.0029058760144904396  0.9998783125403031  1.0000
  Ga  Ga11      1.0  0.002499999873731864  0.0029674640579555995  0.9991114179253547  1.0000
  Ga  Ga12      1.0  0.002499999873731864  0.00963413049093459  0.9993652449298206  1.0000
  Ga  Ga13      1.0  4.999999905390416e-11  0.007967463796775256  0.9994921585800876  1.0000
  Ga  Ga14      1.0  0.009999999494927456  0.004685164016747389  0.9997320840123789  1.0000
  Ga  Ga15      1.0  9.24999931695597e-09  0.0013014369119813223  0.9999944653066782  1.0000
  Ga  Ga16      1.0  4.999999905390416e-11  0.0013007976215400258  0.9992383315756216  1.0000
  Au  Au9       1.0  0.005000001851932664  0.0038416882808522497  0.9999789063463997  1.0000
  Au  Au10      1.0  0.004999999747463728  0.0038007977486936143  0.9992383315756216  1.0000
  Au  Au11      1.0  0.004999999747463728  0.00046746423150306504  0.9994921585800876  1.0000
  Au  Au12      1.0  0.004999997642994792  0.0071596426144532955  0.9997426329116543  1.0000
  Au  Au13      1.0  0.007499999831642485  0.007134130793353936  0.9993652449298206  1.0000
  Au  Au14      1.0  0.007499999831642485  0.0038007977486936143  0.9996190722303544  1.0000
  Au  Au15      1.0  0.007500005724155505  0.00036586902966201525  0.9998805993687624  1.0000
  Au  Au16      1.0  0.007499999831642485  0.00046746423150306504  0.9991114179253547  1.0000
  Ga  Ga17      1.0  0.004999999747463728  0.006300797789932616  0.9992383315756216  1.0000
  Ga  Ga18      1.0  0.004999999747463728  0.0029674640579555995  0.9994921585800876  1.0000
  Ga  Ga19      1.0  0.005000006481764322  0.009626199543586523  0.9997488065195043  1.0000
  Ga  Ga20      1.0  0.004999993434056921  0.0062539282898408126  0.0  1.0000
  Ga  Ga21      1.0  0.007499999831642485  0.004634130752114934  0.9993652449298206  1.0000
  Ga  Ga22      1.0  0.007499999831642485  0.0013007976215400258  0.9996190722303544  1.0000
  Ga  Ga23      1.0  0.007499993939129465  0.007890337928435838  0.9998901126225238  1.0000
  Ga  Ga24      1.0  0.007499999831642485  0.007967463796775256  0.9991114179253547  1.0000
  Ga  Ga25      1.0  0.007499999831642485  0.006300797789932616  0.9996190722303544  1.0000
  Ga  Ga26      1.0  0.0075000031987927825  0.0029058760144904396  0.9998783125403031  1.0000
  Ga  Ga27      1.0  0.007499999831642485  0.0029674640579555995  0.9991114179253547  1.0000
  Ga  Ga28      1.0  0.007499999831642485  0.00963413049093459  0.9993652449298206  1.0000
  Ga  Ga29      1.0  0.004999999747463728  0.007967463796775256  0.9994921585800876  1.0000
  Ga  Ga30      1.0  0.004999999747463728  0.004685164016747389  0.9997320840123789  1.0000
  Ga  Ga31      1.0  0.005000009007127045  0.0013014369119813223  0.9999944653066782  1.0000
  Ga  Ga32      1.0  0.004999999747463728  0.0013007976215400258  0.9992383315756216  1.0000
