data_image0
_chemical_formula_structural       COCa6Zn12Ge12Ca6Zn12Ge12
_chemical_formula_sum              "C1 O1 Ca12 Zn24 Ge24"
_cell_length_a       13.928158456848179
_cell_length_b       8.762856483459473
_cell_length_c       105.03749084472656
_cell_angle_alpha    90.0
_cell_angle_beta     118.97926160487923
_cell_angle_gamma    90.0

_space_group_name_H-M_alt    "P 1"
_space_group_IT_number       1

loop_
  _space_group_symop_operation_xyz
  'x, y, z'

loop_
  _atom_site_type_symbol
  _atom_site_label
  _atom_site_symmetry_multiplicity
  _atom_site_fract_x
  _atom_site_fract_y
  _atom_site_fract_z
  _atom_site_occupancy
  C   C1        1.0  0.009426082856618218  0.0  0.0003779838248686645  1.0000
  O   O1        1.0  0.009426082856618218  0.0  0.0004922284114209979  1.0000
  Ca  Ca1       1.0  0.0070542065335963125  0.010000000102029477  2.1301477246437365e-05  1.0000
  Ca  Ca2       1.0  0.0004166666355825413  0.0  0.9992631166304247  1.0000
  Ca  Ca3       1.0  0.00374999998777018  0.0  0.9996337512142157  1.0000
  Ca  Ca4       1.0  0.00708333307243051  0.0025000000255073693  0.9994484337821086  1.0000
  Ca  Ca5       1.0  0.0004166666355825413  0.0025000000255073693  0.9998190683454052  1.0000
  Ca  Ca6       1.0  0.0038271093073507516  0.0025000000255073693  0.00017662742911208164  1.0000
  Zn  Zn1       1.0  0.006249999877701802  0.0  0.9996337512865888  1.0000
  Zn  Zn2       1.0  0.009556474137864234  1.0000000077637264e-10  1.772781715300762e-05  1.0000
  Zn  Zn3       1.0  0.002916666487295976  0.0  0.9992631164166123  1.0000
  Zn  Zn4       1.0  0.00791666626715922  0.0025000000255073693  0.9998190685600695  1.0000
  Zn  Zn5       1.0  0.0010587914514577123  0.0025000002380687818  0.00015325142798750305  1.0000
  Zn  Zn6       1.0  0.004583333182498889  0.0025000000255073693  0.9994484339934657  1.0000
  Zn  Zn7       1.0  0.009583333268107628  0.0025000000255073693  0.9994484338741243  1.0000
  Zn  Zn8       1.0  0.002916666487295976  0.0025000000255073693  0.9998190686990535  1.0000
  Zn  Zn9       1.0  0.00641591817397402  0.0024999998129459572  0.00022571735621181485  1.0000
  Zn  Zn10      1.0  0.00791666626715922  0.0  0.9992631165613587  1.0000
  Zn  Zn11      1.0  0.0012500000214021845  0.0  0.9996337511369319  1.0000
  Zn  Zn12      1.0  0.0045914730448118595  0.010000000102029477  8.71168292444499e-07  1.0000
  Ge  Ge1       1.0  0.008358019061534112  0.0  0.9997209202383943  1.0000
  Ge  Ge2       1.0  0.0018365919390596493  2.999999959942942e-10  0.00011799118317079008  1.0000
  Ge  Ge3       1.0  0.005024685671128288  0.0  0.999350285652148  1.0000
  Ge  Ge4       1.0  0.005808647083326908  0.0025000000255073693  0.9997318996082641  1.0000
  Ge  Ge5       1.0  0.009034972607943129  0.0025000002380687818  0.00011080333583516583  1.0000
  Ge  Ge6       1.0  0.002475314151539325  0.0025000000255073693  0.9993612647677512  1.0000
  Ge  Ge7       1.0  0.00848817308427602  0.0025000000255073693  0.0003018483322854916  1.0000
  Ge  Ge8       1.0  0.0016913524335952091  0.0025000000255073693  0.9995356027907035  1.0000
  Ge  Ge9       1.0  0.005024685671128288  0.0025000000255073693  0.9999062376508588  1.0000
  Ge  Ge10      1.0  0.009141980473732735  0.0  0.9995465821957995  1.0000
  Ge  Ge11      1.0  0.002475314151539325  0.0  0.9999172170501924  1.0000
  Ge  Ge12      1.0  0.005765643367966356  4.999999848773919e-10  0.0002770445264378457  1.0000
  Ca  Ca7       1.0  0.0070542065335963125  0.0050000000510147385  2.1301477246437365e-05  1.0000
  Ca  Ca8       1.0  0.0004166666355825413  0.0050000000510147385  0.9992631166304247  1.0000
  Ca  Ca9       1.0  0.00374999998777018  0.0050000000510147385  0.9996337512142157  1.0000
  Ca  Ca10      1.0  0.00708333307243051  0.007499999863960696  0.9994484337821086  1.0000
  Ca  Ca11      1.0  0.0004166666355825413  0.007499999863960696  0.9998190683454052  1.0000
  Ca  Ca12      1.0  0.0038271093073507516  0.007499999863960696  0.00017662742911208164  1.0000
  Zn  Zn13      1.0  0.006249999877701802  0.0050000000510147385  0.9996337512865888  1.0000
  Zn  Zn14      1.0  0.009556474137864234  0.0050000000510147385  1.772781715300762e-05  1.0000
  Zn  Zn15      1.0  0.002916666487295976  0.0050000000510147385  0.9992631164166123  1.0000
  Zn  Zn16      1.0  0.00791666626715922  0.007499999863960696  0.9998190685600695  1.0000
  Zn  Zn17      1.0  0.0010587914514577123  0.007499999863960696  0.00015325142798750305  1.0000
  Zn  Zn18      1.0  0.004583333182498889  0.007499999863960696  0.9994484339934657  1.0000
  Zn  Zn19      1.0  0.009583333268107628  0.007499999863960696  0.9994484338741243  1.0000
  Zn  Zn20      1.0  0.002916666487295976  0.007499999863960696  0.9998190686990535  1.0000
  Zn  Zn21      1.0  0.00641591817397402  0.007499999863960696  0.00022571735621181485  1.0000
  Zn  Zn22      1.0  0.00791666626715922  0.0050000000510147385  0.9992631165613587  1.0000
  Zn  Zn23      1.0  0.0012500000214021845  0.0050000000510147385  0.9996337511369319  1.0000
  Zn  Zn24      1.0  0.0045914730448118595  0.0050000000510147385  8.71168292444499e-07  1.0000
  Ge  Ge13      1.0  0.008358019061534112  0.0050000000510147385  0.9997209202383943  1.0000
  Ge  Ge14      1.0  0.0018365919390596493  0.0050000004761375635  0.00011799118317079008  1.0000
  Ge  Ge15      1.0  0.005024685671128288  0.0050000000510147385  0.999350285652148  1.0000
  Ge  Ge16      1.0  0.005808647083326908  0.007499999863960696  0.9997318996082641  1.0000
  Ge  Ge17      1.0  0.009034972607943129  0.007499999863960696  0.00011080333583516583  1.0000
  Ge  Ge18      1.0  0.002475314151539325  0.007499999863960696  0.9993612647677512  1.0000
  Ge  Ge19      1.0  0.00848817308427602  0.007499999863960696  0.0003018483322854916  1.0000
  Ge  Ge20      1.0  0.0016913524335952091  0.007499999863960696  0.9995356027907035  1.0000
  Ge  Ge21      1.0  0.005024685671128288  0.007499999863960696  0.9999062376508588  1.0000
  Ge  Ge22      1.0  0.009141980473732735  0.0050000000510147385  0.9995465821957995  1.0000
  Ge  Ge23      1.0  0.002475314151539325  0.0050000000510147385  0.9999172170501924  1.0000
  Ge  Ge24      1.0  0.005765643367966356  0.0050000004761375635  0.0002770445264378457  1.0000
