data_image0
_chemical_formula_structural       HCo12Ni6Se24
_chemical_formula_sum              "H1 Co12 Ni6 Se24"
_cell_length_a       10.542536595628087
_cell_length_b       14.094662849584465
_cell_length_c       98.76953887939453
_cell_angle_alpha    95.92083459753668
_cell_angle_beta     88.61729615175624
_cell_angle_gamma    42.636377012104035

_space_group_name_H-M_alt    "P 1"
_space_group_IT_number       1

loop_
  _space_group_symop_operation_xyz
  'x, y, z'

loop_
  _atom_site_type_symbol
  _atom_site_label
  _atom_site_symmetry_multiplicity
  _atom_site_fract_x
  _atom_site_fract_y
  _atom_site_fract_z
  _atom_site_occupancy
  H   H1        1.0  0.002853940706111406  0.009885421656668397  0.00011181511499959307  1.0000
  Co  Co1       1.0  0.004324499098847463  0.008862555565718331  0.9996083448259429  1.0000
  Co  Co2       1.0  0.0010810173568632227  0.002137233888068955  0.9998556267523714  1.0000
  Co  Co3       1.0  0.007657832541203214  0.005529221859762264  0.9993656117137574  1.0000
  Co  Co4       1.0  0.0013362780371320151  0.0020698418179202305  0.9995053358272535  1.0000
  Co  Co5       1.0  0.008002944394315703  0.00540317563574632  0.9997480686459008  1.0000
  Co  Co6       1.0  0.004807680539764424  0.008467965105015062  0.9999428023042292  1.0000
  Co  Co7       1.0  0.009492476643263447  0.008833109534705712  0.9999163285671779  1.0000
  Co  Co8       1.0  0.005991165951907291  0.0021958887029150105  0.9994869784202338  1.0000
  Co  Co9       1.0  0.0026578325095515452  0.005529222408871075  0.9997297112306833  1.0000
  Co  Co10      1.0  0.009669610983611628  0.008736509324038695  0.9996267022489835  1.0000
  Co  Co11      1.0  0.006353887210572081  0.00221085907549626  0.999875488255445  1.0000
  Co  Co12      1.0  0.003002944626427935  0.005403175506212608  0.9993839691286003  1.0000
  Ni  Ni1       1.0  0.006997055436875397  0.008799531692637289  0.9996175233745028  1.0000
  Ni  Ni2       1.0  0.0038547627590153066  0.0021724845368870705  0.9998669444948097  1.0000
  Ni  Ni3       1.0  0.00033038865107536846  0.005466198645452099  0.9993747905683037  1.0000
  Ni  Ni4       1.0  0.0019650568875852936  0.008855644508701216  0.9999379099833162  1.0000
  Ni  Ni5       1.0  0.00866372202617132  0.0021328655084764943  0.999496156979463  1.0000
  Ni  Ni6       1.0  0.005330388320051674  0.005466198830184837  0.9997388897849356  1.0000
  Se  Se1       1.0  0.004632954363831513  0.009917284055642248  0.9994547345322328  1.0000
  Se  Se2       1.0  0.0012996211852396736  0.0032506166790574934  0.9996974673260675  1.0000
  Se  Se3       1.0  0.007974367158235922  0.006470501673182111  0.9999457392213046  1.0000
  Se  Se4       1.0  0.0010278227062069884  0.001015113896240787  0.9996589458277624  1.0000
  Se  Se5       1.0  0.007711887259999328  0.0042151306312000775  0.9999220990907053  1.0000
  Se  Se6       1.0  0.0043611559507398074  0.007681780704581067  0.999416213025393  1.0000
  Se  Se7       1.0  0.004524634970174167  0.0075761689439599305  0.9997608329742291  1.0000
  Se  Se8       1.0  0.001628427417762045  0.0006444181620667356  2.5516576883867988e-05  1.0000
  Se  Se9       1.0  0.00784653398366173  0.004327961147874278  0.9995405630559989  1.0000
  Se  Se10      1.0  0.0013714766702981958  0.003193786489807233  3.325242938573346e-05  1.0000
  Se  Se11      1.0  0.00781424295185719  0.006604435816189182  0.9995731172958363  1.0000
  Se  Se12      1.0  0.004560933103161277  0.009906360082519598  0.9998154332829109  1.0000
  Se  Se13      1.0  0.009610268326130145  6.223072394188413e-05  0.9997971144766635  1.0000
  Se  Se14      1.0  0.006715159350365295  0.00329775357330024  3.1248268163862463e-05  1.0000
  Se  Se15      1.0  0.0029662877745355947  0.00658395036734987  0.9995761009291501  1.0000
  Se  Se16      1.0  0.009319866381343618  0.007565261227068097  0.9997784825052657  1.0000
  Se  Se17      1.0  0.006422275914799043  0.0009093296317728971  1.462243128189505e-05  1.0000
  Se  Se18      1.0  0.002694489361443886  0.004348447547733813  0.9995375794301334  1.0000
  Se  Se19      1.0  0.009513201100485452  0.007661295073216977  0.9994191966612123  1.0000
  Se  Se20      1.0  0.006179867394365807  0.0009946279910270246  0.9996619294607393  1.0000
  Se  Se21      1.0  0.0029718481813306  0.004309284499787898  0.9999130098351103  1.0000
  Se  Se22      1.0  0.009480910068680912  0.009937769210086758  0.9994517508932266  1.0000
  Se  Se23      1.0  0.006147576362561266  0.0032711026593419293  0.9996944837005768  1.0000
  Se  Se24      1.0  0.00266179819980167  0.006808621097416464  0.9999431991983471  1.0000
