data_image0
_chemical_formula_structural       HSiAgPt5SiAgPt5SiAgPt5SiAgPt5
_chemical_formula_sum              "H1 Si4 Ag4 Pt20"
_cell_length_a       7.979586124420166
_cell_length_b       7.161142826080322
_cell_length_c       101.91834259033203
_cell_angle_alpha    90.0
_cell_angle_beta     90.0
_cell_angle_gamma    90.0

_space_group_name_H-M_alt    "P 1"
_space_group_IT_number       1

loop_
  _space_group_symop_operation_xyz
  'x, y, z'

loop_
  _atom_site_type_symbol
  _atom_site_label
  _atom_site_symmetry_multiplicity
  _atom_site_fract_x
  _atom_site_fract_y
  _atom_site_fract_z
  _atom_site_occupancy
  H   H1        1.0  0.0025000001867410285  0.009007017743035776  0.00011946796740027672  1.0000
  Si  Si1       1.0  5.000000195271724e-11  0.0050002178634911895  0.9996069667097873  1.0000
  Ag  Ag1       1.0  0.0025000001867410285  2.1765000677516018e-07  0.9994112316865728  1.0000
  Pt  Pt1       1.0  0.0025000001867410285  0.002964434919118751  0.9996069667097873  1.0000
  Pt  Pt2       1.0  0.0025000001867410285  0.007036000807863627  0.9996069667097873  1.0000
  Pt  Pt3       1.0  5.000000195271724e-11  0.002964434919118751  0.9994112316865728  1.0000
  Pt  Pt4       1.0  5.000000195271724e-11  0.007036000807863627  0.9994112316865728  1.0000
  Pt  Pt5       1.0  5.000000195271724e-11  2.1765000677516018e-07  0.9996069667097873  1.0000
  Si  Si2       1.0  2.4999999237197264e-10  0.005000329188197767  0.9999920036542265  1.0000
  Ag  Ag2       1.0  0.0025000001867410285  4.943500114533257e-07  0.9998055624164913  1.0000
  Pt  Pt6       1.0  0.0025000006535936  0.0029795186365465984  0.9999958091264672  1.0000
  Pt  Pt7       1.0  0.0025000001867410285  0.007021486979295851  0.9999957465499297  1.0000
  Pt  Pt8       1.0  3.500000171473434e-10  0.002932743272158985  0.999800331719746  1.0000
  Pt  Pt9       1.0  0.009999999813258973  0.007067603499099914  0.9998003100811302  1.0000
  Pt  Pt10      1.0  5.000000195271724e-11  0.009999782344592374  0.0  1.0000
  Si  Si3       1.0  0.005000000373482057  0.0050002178634911895  0.9996069667097873  1.0000
  Ag  Ag3       1.0  0.007500000093370515  2.1765000677516018e-07  0.9994112316865728  1.0000
  Pt  Pt11      1.0  0.007500000093370515  0.002964434919118751  0.9996069667097873  1.0000
  Pt  Pt12      1.0  0.007500000093370515  0.007036000807863627  0.9996069667097873  1.0000
  Pt  Pt13      1.0  0.005000000373482057  0.002964434919118751  0.9994112316865728  1.0000
  Pt  Pt14      1.0  0.005000000373482057  0.007036000807863627  0.9994112316865728  1.0000
  Pt  Pt15      1.0  0.005000000373482057  2.1765000677516018e-07  0.9996069667097873  1.0000
  Si  Si4       1.0  0.005000000373482057  0.005000329188197767  0.9999920036542265  1.0000
  Ag  Ag4       1.0  0.007500000093370515  4.943500114533257e-07  0.9998055624164913  1.0000
  Pt  Pt16      1.0  0.007500001027075657  0.0029795186365465984  0.9999958091264672  1.0000
  Pt  Pt17      1.0  0.007500000093370515  0.007021486979295851  0.9999957465499297  1.0000
  Pt  Pt18      1.0  0.005000000373482057  0.002932743272158985  0.999800331719746  1.0000
  Pt  Pt19      1.0  0.0049999999066294865  0.007067603499099914  0.9998003100811302  1.0000
  Pt  Pt20      1.0  0.005000000373482057  0.009999782344592374  0.0  1.0000
