data_image0
_chemical_formula_structural       HSi24Os16
_chemical_formula_sum              "H1 Si24 Os16"
_cell_length_a       9.05555248260498
_cell_length_b       5.644364833831787
_cell_length_c       103.84156799316406
_cell_angle_alpha    90.0
_cell_angle_beta     90.0
_cell_angle_gamma    90.0

_space_group_name_H-M_alt    "P 1"
_space_group_IT_number       1

loop_
  _space_group_symop_operation_xyz
  'x, y, z'

loop_
  _atom_site_type_symbol
  _atom_site_label
  _atom_site_symmetry_multiplicity
  _atom_site_fract_x
  _atom_site_fract_y
  _atom_site_fract_z
  _atom_site_occupancy
  H   H1        1.0  0.0016471172438716603  0.0025677957888365476  9.081764729306792e-05  1.0000
  Si  Si1       1.0  0.0010712807119618532  0.006041898300857871  0.9997398581243523  1.0000
  Si  Si2       1.0  0.003928719267469052  0.0010418984592582756  0.0  1.0000
  Si  Si3       1.0  0.0010712807119618532  0.008958101223940916  0.999456839638081  1.0000
  Si  Si4       1.0  0.003928719267469052  0.00395810138234132  0.9991966977624331  1.0000
  Si  Si5       1.0  0.00892871893836354  0.00395810138234132  0.999456839638081  1.0000
  Si  Si6       1.0  0.006071280485701813  0.008958101223940916  0.9991966977624331  1.0000
  Si  Si7       1.0  0.00892871893836354  0.0010418984592582756  0.9997398581243523  1.0000
  Si  Si8       1.0  0.006071280485701813  0.006041898300857871  0.0  1.0000
  Si  Si9       1.0  0.0006344845740347861  0.009093693290015258  0.9999443407557659  1.0000
  Si  Si10      1.0  0.0043655155082415915  0.00409369311841482  0.9997955173685863  1.0000
  Si  Si11      1.0  0.0006344845740347861  0.0059063062347835295  0.9992523572936652  1.0000
  Si  Si12      1.0  0.0043655155082415915  0.0009063065581843546  0.9994011803938468  1.0000
  Si  Si13      1.0  0.009365515179136079  0.0009063065581843546  0.9992523572936652  1.0000
  Si  Si14      1.0  0.005634484656311164  0.0059063062347835295  0.9994011803938468  1.0000
  Si  Si15      1.0  0.009365515179136079  0.00409369311841482  0.9999443407557659  1.0000
  Si  Si16      1.0  0.005634484656311164  0.009093693290015258  0.9997955173685863  1.0000
  Si  Si17      1.0  0.0070546555726514895  0.005563141658917719  0.9996785214856714  1.0000
  Si  Si18      1.0  0.007945344262795754  0.0005631421885690707  0.9989750156278447  1.0000
  Si  Si19      1.0  0.0070546555726514895  0.009436857205879383  0.9995181757027658  1.0000
  Si  Si20      1.0  0.007945344262795754  0.00443685769428063  0.9991353614107503  1.0000
  Si  Si21      1.0  0.0029453439748284307  0.00443685769428063  0.9995181757027658  1.0000
  Si  Si22      1.0  0.0020546559017570023  0.009436857205879383  0.9991353614107503  1.0000
  Si  Si23      1.0  0.0029453439748284307  0.0005631421885690707  0.9996785214856714  1.0000
  Si  Si24      1.0  0.0020546559017570023  0.005563141658917719  0.9989750156278447  1.0000
  Os  Os1       1.0  0.00923961421988566  0.007499999762399394  0.9995983485942186  1.0000
  Os  Os2       1.0  0.005760385204179692  0.0024999999207997977  0.9990551885192975  1.0000
  Os  Os3       1.0  0.0007603852761715234  0.0024999999207997977  0.9995983485942186  1.0000
  Os  Os4       1.0  0.004239614548991173  0.007499999762399394  0.9990551885192975  1.0000
  Os  Os5       1.0  0.004622445713387538  0.007499999762399394  0.9995983485942186  1.0000
  Os  Os6       1.0  0.0003775540860637901  0.0024999999207997977  0.9990551885192975  1.0000
  Os  Os7       1.0  0.005377554039783327  0.0024999999207997977  0.9995983485942186  1.0000
  Os  Os8       1.0  0.009622445384282025  0.007499999762399394  0.9990551885192975  1.0000
  Os  Os9       1.0  0.0031321434408349905  0.007624609400443065  0.999864617303182  1.0000
  Os  Os10      1.0  0.001867856435750442  0.0026246095588434693  0.9998752402471742  1.0000
  Os  Os11      1.0  0.0031321434408349905  0.007375390124355722  0.9993320801722532  1.0000
  Os  Os12      1.0  0.001867856435750442  0.0023753902827561265  0.9993214572282609  1.0000
  Os  Os13      1.0  0.00686785651802682  0.0023753902827561265  0.9993320801722532  1.0000
  Os  Os14      1.0  0.008132143728802313  0.007375390124355722  0.9993214572282609  1.0000
  Os  Os15      1.0  0.00686785651802682  0.0026246095588434693  0.999864617303182  1.0000
  Os  Os16      1.0  0.008132143728802313  0.007624609400443065  0.9998752402471742  1.0000
