data_image0
_chemical_formula_structural       HAu12Pd4
_chemical_formula_sum              "H1 Au12 Pd4"
_cell_length_a       5.043559123943247
_cell_length_b       5.8820648193359375
_cell_length_c       108.29237365722656
_cell_angle_alpha    90.0
_cell_angle_beta     93.3267408946342
_cell_angle_gamma    90.0

_space_group_name_H-M_alt    "P 1"
_space_group_IT_number       1

loop_
  _space_group_symop_operation_xyz
  'x, y, z'

loop_
  _atom_site_type_symbol
  _atom_site_label
  _atom_site_symmetry_multiplicity
  _atom_site_fract_x
  _atom_site_fract_y
  _atom_site_fract_z
  _atom_site_occupancy
  H   H1        1.0  0.008007998836284953  5.500000109212225e-10  0.00011197644480572199  1.0000
  Au  Au1       1.0  0.009058974696537247  0.007500000227998933  0.9995620992517935  1.0000
  Au  Au2       1.0  0.005921358357586867  0.0025066983363434595  0.9997824457411602  1.0000
  Au  Au3       1.0  0.002183974829713865  0.0025000002343322373  0.9993410980038554  1.0000
  Au  Au4       1.0  0.0028143232544913547  0.007518349708858534  7.606161093888332e-06  1.0000
  Au  Au5       1.0  0.009058974696537247  0.0025000002343322373  0.9995620992517935  1.0000
  Au  Au6       1.0  0.005921356877846665  0.007493301492657339  0.999782445737161  1.0000
  Au  Au7       1.0  0.002183974829713865  0.007500000227998933  0.9993410980038554  1.0000
  Au  Au8       1.0  0.002814324364296506  0.0024816505951400433  7.606164093315193e-06  1.0000
  Au  Au9       1.0  0.004058974726132051  0.005000000151999289  0.9995620989367667  1.0000
  Au  Au10      1.0  0.0009432824954677333  0.009999999670668206  0.9997812915873309  1.0000
  Au  Au11      1.0  0.00718397443018401  1.5000000040469033e-10  0.99934109804268  1.0000
  Au  Au12      1.0  0.007868269928478118  0.0050000004686644745  6.232608044048521e-06  1.0000
  Pd  Pd1       1.0  0.00718397443018401  0.005000000151999289  0.99934109804268  1.0000
  Pd  Pd2       1.0  0.004058974726132051  1.5000000040469033e-10  0.9995620989367667  1.0000
  Pd  Pd3       1.0  0.007808376703926761  5.500000109212225e-10  0.9999979357536881  1.0000
  Pd  Pd4       1.0  0.0009410251517893823  0.005000000151999289  0.999782485919416  1.0000
