data_image0
_chemical_formula_structural       HCr6Pt2Cr6Pt2
_chemical_formula_sum              "H1 Cr12 Pt4"
_cell_length_a       4.685711860656738
_cell_length_b       4.685711860656738
_cell_length_c       102.79998016357422
_cell_angle_alpha    90.0
_cell_angle_beta     90.0
_cell_angle_gamma    90.0

_space_group_name_H-M_alt    "P 1"
_space_group_IT_number       1

loop_
  _space_group_symop_operation_xyz
  'x, y, z'

loop_
  _atom_site_type_symbol
  _atom_site_label
  _atom_site_symmetry_multiplicity
  _atom_site_fract_x
  _atom_site_fract_y
  _atom_site_fract_z
  _atom_site_occupancy
  H   H1        1.0  0.0066666408281306445  0.005000006757770959  8.75446288124437e-05  1.0000
  Cr  Cr1       1.0  1.7649999438609667e-08  0.005000038161530124  0.9992204554585211  1.0000
  Cr  Cr2       1.0  1.7649999438609667e-08  0.005000038161530124  0.9994483597758761  1.0000
  Cr  Cr3       1.0  0.005000017490701307  0.0025000381615301248  0.9995623116446477  1.0000
  Cr  Cr4       1.0  0.005000017490701307  0.007500038161530124  0.9995623116446477  1.0000
  Cr  Cr5       1.0  0.007500017490701307  3.820000126792833e-08  0.9993344076171986  1.0000
  Cr  Cr6       1.0  0.0025000176894592763  3.820000126792833e-08  0.9993344076171986  1.0000
  Pt  Pt1       1.0  1.7649999438609667e-08  3.820000126792833e-08  0.9995623116446477  1.0000
  Pt  Pt2       1.0  0.005000017490701307  0.005000038161530124  0.9993344076171986  1.0000
  Cr  Cr7       1.0  1.7649999438609667e-08  0.005000038161530124  0.9996762638033252  1.0000
  Cr  Cr8       1.0  0.009999982509298693  0.004999823105407235  0.9999030873514262  1.0000
  Cr  Cr9       1.0  0.004999941962672935  0.002520361760175136  0.9999999982605645  1.0000
  Cr  Cr10      1.0  0.0049999980124203055  0.007479835606488477  0.0  1.0000
  Cr  Cr11      1.0  0.007417365976706202  1.4360000041562153e-07  0.9997920586040031  1.0000
  Cr  Cr12      1.0  0.002582621302783756  1.374999965372635e-07  0.9997920603434386  1.0000
  Pt  Pt3       1.0  0.009999925267003506  0.009999961838469875  2.0288195795534858e-05  1.0000
  Pt  Pt4       1.0  0.005000041739173574  0.00499979130413213  0.9997830361520933  1.0000
