data_image0
_chemical_formula_structural       HRe30Os10
_chemical_formula_sum              "H1 Re30 Os10"
_cell_length_a       14.725493167921975
_cell_length_b       7.11894598848364
_cell_length_c       98.47578430175781
_cell_angle_alpha    85.23074382431673
_cell_angle_beta     81.50346810289972
_cell_angle_gamma    53.77212965813181

_space_group_name_H-M_alt    "P 1"
_space_group_IT_number       1

loop_
  _space_group_symop_operation_xyz
  'x, y, z'

loop_
  _atom_site_type_symbol
  _atom_site_label
  _atom_site_symmetry_multiplicity
  _atom_site_fract_x
  _atom_site_fract_y
  _atom_site_fract_z
  _atom_site_occupancy
  H   H1        1.0  0.005355942540217901  0.0008209779891635586  0.9998806822132729  1.0000
  Re  Re1       1.0  0.0015170609992967016  0.008724395825673326  0.9997417234627862  1.0000
  Re  Re2       1.0  0.005432648402216138  0.006811918560743824  0.9991686639044837  1.0000
  Re  Re3       1.0  0.007437886405861811  0.0006910877200269898  0.9996034033517294  1.0000
  Re  Re4       1.0  0.009432648896766246  0.004811918176705471  0.9993132463549115  1.0000
  Re  Re5       1.0  0.0034326483053919964  0.002811918441380552  0.9994578290433302  1.0000
  Re  Re6       1.0  0.0024489729032902306  0.0007100211514053147  0.9996041199859651  1.0000
  Re  Re7       1.0  0.006530430451984058  0.00876845254984029  0.9997381480073062  1.0000
  Re  Re8       1.0  0.008439259863558368  0.002825141816022296  0.9994568731209834  1.0000
  Re  Re9       1.0  0.00043925982737185327  0.006825141935385568  0.9991677079003374  1.0000
  Re  Re10      1.0  0.004439260066132242  0.004825141551347215  0.9993122906590526  1.0000
  Re  Re11      1.0  0.0035253371476323607  0.0074812299438565  0.9997958553868732  1.0000
  Re  Re12      1.0  0.007445871715663363  0.005805306681403775  0.9992414329850382  1.0000
  Re  Re13      1.0  0.009366958653500583  0.009852544166901657  0.9996757334886126  1.0000
  Re  Re14      1.0  0.0014458717286408244  0.0038053066217221395  0.9993860156620542  1.0000
  Re  Re15      1.0  0.005465423079487153  0.0017870074913115994  0.9995250538610649  1.0000
  Re  Re16      1.0  0.006445871996574279  0.007149659533392986  0.99950570453532  1.0000
  Re  Re17      1.0  0.0004989777700437584  0.005098956680411503  0.999649162635187  1.0000
  Re  Re18      1.0  0.002445871687568713  0.009149659268717905  0.9993611220846917  1.0000
  Re  Re19      1.0  0.004541913156177428  0.0028419243569205123  0.9997690833920992  1.0000
  Re  Re20      1.0  0.008445871720369333  0.001149659597615616  0.9992165393505718  1.0000
  Re  Re21      1.0  0.005486426616439391  0.005174137702078906  0.9996493078351112  1.0000
  Re  Re22      1.0  0.009567352226909688  0.0028073008991562616  0.9997717493528181  1.0000
  Re  Re23      1.0  0.0014392599268284675  0.0071364361587512425  0.9995066607716054  1.0000
  Re  Re24      1.0  0.0034392599296063082  0.0011364361418846926  0.9992174952785449  1.0000
  Re  Re25      1.0  0.007439260518202718  0.00913643589407616  0.9993620780831868  1.0000
  Re  Re26      1.0  0.004432648357092156  0.008156270764019601  0.9994329354658678  1.0000
  Re  Re27      1.0  0.008449638073082692  0.006083943373067394  0.9995675666914168  1.0000
  Re  Re28      1.0  0.0004326482278907851  0.00015627119427878553  0.9992883526499796  1.0000
  Re  Re29      1.0  0.002379880549846777  0.004330137197494028  0.9997126689995004  1.0000
  Re  Re30      1.0  0.006432648476501311  0.0021562712336881265  0.999143769967306  1.0000
  Os  Os1       1.0  0.0034723296112459624  0.006104559486004729  0.9995681947646771  1.0000
  Os  Os2       1.0  0.007444367702510234  0.0041514244309465  0.9997110438946685  1.0000
  Os  Os3       1.0  0.009439260761276137  0.008147455397162917  0.9994335725108817  1.0000
  Os  Os4       1.0  0.00143925989879675  0.0021474557046530836  0.9991444072528862  1.0000
  Os  Os5       1.0  0.005439259902394339  0.00014745569565218452  0.9992889900145429  1.0000
  Os  Os6       1.0  0.004370512507624345  0.009852219161471148  0.9996759787356934  1.0000
  Os  Os7       1.0  0.008544444953347894  0.007460117565142039  0.9997985122288553  1.0000
  Os  Os8       1.0  0.0004632369621285124  0.0017747646470255753  0.9995252563563728  1.0000
  Os  Os9       1.0  0.002439260078848543  0.00581412204826046  0.9992407959230702  1.0000
  Os  Os10      1.0  0.0064392601320643885  0.0038141223129355413  0.9993853783793497  1.0000
