data_image0
_chemical_formula_structural       Os6Re6V12H
_chemical_formula_sum              "Os6 Re6 V12 H1"
_cell_length_a       6.062433242797852
_cell_length_b       7.424933862112873
_cell_length_c       102.64720153808594
_cell_angle_alpha    94.34775313254289
_cell_angle_beta     90.0
_cell_angle_gamma    114.09484310481496

_space_group_name_H-M_alt    "P 1"
_space_group_IT_number       1

loop_
  _space_group_symop_operation_xyz
  'x, y, z'

loop_
  _atom_site_type_symbol
  _atom_site_label
  _atom_site_symmetry_multiplicity
  _atom_site_fract_x
  _atom_site_fract_y
  _atom_site_fract_z
  _atom_site_occupancy
  Os  Os1       1.0  0.006998761027791834  0.0035628791674846803  0.9997931865251697  1.0000
  Os  Os2       1.0  0.0028370205889971046  0.005238556053164437  0.999528966670129  1.0000
  Os  Os3       1.0  0.0012054077522100192  0.0019726090826692683  3.714259916241304e-05  1.0000
  Os  Os4       1.0  0.009920353783150676  0.009405222830135014  0.9996614881947776  1.0000
  Os  Os5       1.0  0.005753687040650072  0.0010718893451338045  0.9993964445651837  1.0000
  Os  Os6       1.0  0.004020158649158086  0.0076031492454612494  0.9999160629594818  1.0000
  Re  Re1       1.0  0.00199321881915893  0.003550929393390618  0.9997927929153512  1.0000
  Re  Re2       1.0  0.007837020394665389  0.005238556053164437  0.999528966670129  1.0000
  Re  Re3       1.0  0.00620453648366877  0.001973013070739786  3.9038395069415734e-05  1.0000
  Re  Re4       1.0  0.004920353939076916  0.009405222830135014  0.9996614881947776  1.0000
  Re  Re5       1.0  0.0007536872925900046  0.0010718893451338045  0.9993964445651837  1.0000
  Re  Re6       1.0  0.009019924441135333  0.007603105675416785  0.999918777375319  1.0000
  V   V1        1.0  0.005139979188048038  0.004784105046843335  0.9999957379648066  1.0000
  V   V2        1.0  0.0009620205744300312  0.006488555810495835  0.9997277496632871  1.0000
  V   V3        1.0  0.0067953536778842145  0.008155222521284066  0.9994627054889326  1.0000
  V   V4        1.0  0.0017953539298241465  0.008155222521284066  0.9994627054889326  1.0000
  V   V5        1.0  7.964607289181731e-05  0.004783785717023772  0.9999957309876358  1.0000
  V   V6        1.0  0.005962020322490098  0.006488555810495835  0.9997277496632871  1.0000
  V   V7        1.0  0.009712020328960791  0.003988556020073264  0.9993301836754588  1.0000
  V   V8        1.0  0.007989650942015026  0.0005948578185688108  0.9998682487185672  1.0000
  V   V9        1.0  0.0038786870718846974  0.0023218893092850335  0.9995952272691385  1.0000
  V   V10       1.0  0.008878686973566675  0.0023218893092850335  0.9995952272691385  1.0000
  V   V11       1.0  0.004712020427278813  0.003988556020073264  0.9993301836754588  1.0000
  V   V12       1.0  0.0030410857600847527  0.0005947772277745386  0.9998682227269424  1.0000
  H   H1        1.0  0.00700991105940174  0.00860037049583249  4.716154352026428e-05  1.0000
