data_image0
_chemical_formula_structural       COCa4Si4Ca4Si4
_chemical_formula_sum              "C1 O1 Ca8 Si8"
_cell_length_a       7.876344680786133
_cell_length_b       4.602869033813477
_cell_length_c       102.41770935058594
_cell_angle_alpha    90.0
_cell_angle_beta     90.0
_cell_angle_gamma    90.0

_space_group_name_H-M_alt    "P 1"
_space_group_IT_number       1

loop_
  _space_group_symop_operation_xyz
  'x, y, z'

loop_
  _atom_site_type_symbol
  _atom_site_label
  _atom_site_symmetry_multiplicity
  _atom_site_fract_x
  _atom_site_fract_y
  _atom_site_fract_z
  _atom_site_occupancy
  C   C1        1.0  0.0012499970581143164  0.002500000509884785  0.0001691163943726854  1.0000
  O   O1        1.0  0.0012499970581143164  0.002500000509884785  0.00028628328660392275  1.0000
  Ca  Ca1       1.0  0.003750002998642321  0.007499976237750334  0.9994732782920955  1.0000
  Ca  Ca2       1.0  0.0012500029702640022  0.0024999760273216923  0.9992382761082423  1.0000
  Ca  Ca3       1.0  0.0037499970864926352  0.002500000509884785  0.0  1.0000
  Ca  Ca4       1.0  0.0012500177506382171  0.007500023988865127  0.9997686249813209  1.0000
  Si  Si1       1.0  0.003750002998642321  0.007499976237750334  0.9991648537300729  1.0000
  Si  Si2       1.0  0.0012500029702640022  0.0024999760273216923  0.999546700670265  1.0000
  Si  Si3       1.0  0.003750002998642321  0.0024999760273216923  0.9996923942781539  1.0000
  Si  Si4       1.0  0.0012500029702640022  0.007499976237750334  0.9990191601221841  1.0000
  Ca  Ca5       1.0  0.008750003291884946  0.007499976237750334  0.9994732782920955  1.0000
  Ca  Ca6       1.0  0.00625000302702064  0.0024999760273216923  0.9992382761082423  1.0000
  Ca  Ca7       1.0  0.008749996670277298  0.002500000509884785  0.0  1.0000
  Ca  Ca8       1.0  0.006250017689151861  0.007500023988865127  0.9997686249813209  1.0000
  Si  Si5       1.0  0.008750003291884946  0.007499976237750334  0.9991648537300729  1.0000
  Si  Si6       1.0  0.00625000302702064  0.0024999760273216923  0.999546700670265  1.0000
  Si  Si7       1.0  0.008750003291884946  0.0024999760273216923  0.9996923942781539  1.0000
  Si  Si8       1.0  0.00625000302702064  0.007499976237750334  0.9990191601221841  1.0000
