data_image0
_chemical_formula_structural       COCa8In16Pt8Ca8In16Pt8
_chemical_formula_sum              "C1 O1 Ca16 In32 Pt16"
_cell_length_a       13.33228141749773
_cell_length_b       8.992127418518066
_cell_length_c       109.99684143066406
_cell_angle_alpha    90.0
_cell_angle_beta     74.14942410083903
_cell_angle_gamma    90.0

_space_group_name_H-M_alt    "P 1"
_space_group_IT_number       1

loop_
  _space_group_symop_operation_xyz
  'x, y, z'

loop_
  _atom_site_type_symbol
  _atom_site_label
  _atom_site_symmetry_multiplicity
  _atom_site_fract_x
  _atom_site_fract_y
  _atom_site_fract_z
  _atom_site_occupancy
  C   C1        1.0  0.001133295542894797  1.0500000796141283e-09  0.9998533880501149  1.0000
  O   O1        1.0  0.001133295542894797  1.0500000796141283e-09  0.9999624823128467  1.0000
  Ca  Ca1       1.0  0.0015021541596794432  1.0500000796141283e-09  0.9996897004561337  1.0000
  Ca  Ca2       1.0  0.006601982614083089  5.000000408511591e-11  0.9990906820858363  1.0000
  Ca  Ca3       1.0  0.005959213527660927  0.002500000389426519  0.999618214503845  1.0000
  Ca  Ca4       1.0  0.0009296310839499638  0.0025000001822847533  0.9990091889242299  1.0000
  Ca  Ca5       1.0  0.004101982277145994  0.0025000001822847533  0.9987876667037596  1.0000
  Ca  Ca6       1.0  0.009101982660557171  0.0025000001822847533  0.9993936969356528  1.0000
  Ca  Ca7       1.0  0.008429631078140704  5.000000408511591e-11  0.9987061739863671  1.0000
  Ca  Ca8       1.0  0.003429631275655552  5.000000408511591e-11  0.9993122043111144  1.0000
  In  In1       1.0  0.0020533112118871627  5.000000408511591e-11  0.9987800045255188  1.0000
  In  In2       1.0  0.007053311014372314  5.000000408511591e-11  0.9993860347766436  1.0000
  In  In3       1.0  0.003911812657156756  8.500000879668874e-10  0.9997522915806664  1.0000
  In  In4       1.0  0.009038764547688951  5.000000408511591e-11  0.9991453856324013  1.0000
  In  In5       1.0  0.0054783020504513705  0.0025000001822847533  0.999319866498971  1.0000
  In  In6       1.0  0.0004783022116583432  0.0025000001822847533  0.9987138362490483  1.0000
  In  In7       1.0  0.003503821338366563  0.002500000389426519  0.9995664381497774  1.0000
  In  In8       1.0  0.008492849191008922  0.0025000001822847533  0.9989544852896185  1.0000
  In  In9       1.0  0.004553311258361245  0.0025000001822847533  0.9990830193753353  1.0000
  In  In10      1.0  0.0094921610446288  0.0025000024608441743  0.9996906870949724  1.0000
  In  In11      1.0  0.006538764501214869  0.0025000001822847533  0.9988423707825849  1.0000
  In  In12      1.0  0.0015387645534982119  0.0025000001822847533  0.9994484011121402  1.0000
  In  In13      1.0  0.007902075307569192  1.950000091413158e-09  0.9996437679252496  1.0000
  In  In14      1.0  0.0029783022944403015  5.000000408511591e-11  0.9990168510976628  1.0000
  In  In15      1.0  0.005992849144534841  5.000000408511591e-11  0.9986514698979261  1.0000
  In  In16      1.0  0.0009928489063551708  5.000000408511591e-11  0.9992575002370971  1.0000
  Pt  Pt1       1.0  0.0026790864692866545  0.0025000001822847533  0.9986152034502195  1.0000
  Pt  Pt2       1.0  0.0076790868526978315  0.0025000001822847533  0.9992212336821126  1.0000
  Pt  Pt3       1.0  0.004892571185838626  0.010000000729139013  0.9994819324874415  1.0000
  Pt  Pt4       1.0  0.009852527466926069  5.000000408511591e-11  0.9988786372206757  1.0000
  Pt  Pt5       1.0  0.0051790868062237495  5.000000408511591e-11  0.9989182182904202  1.0000
  Pt  Pt6       1.0  0.00014747310020296346  1.7500000009930261e-09  0.9995204752049973  1.0000
  Pt  Pt7       1.0  0.007352526839525961  0.0025000001822847533  0.9985756223900908  1.0000
  Pt  Pt8       1.0  0.0023525268918093037  0.0025000001822847533  0.9991816527196461  1.0000
  Ca  Ca9       1.0  0.0015021541596794432  0.005000001193136569  0.9996897004561337  1.0000
  Ca  Ca10      1.0  0.006601982614083089  0.005000000364569507  0.9990906820858363  1.0000
  Ca  Ca11      1.0  0.005959213527660927  0.0075000009611377915  0.999618214503845  1.0000
  Ca  Ca12      1.0  0.0009296310839499638  0.007500000132570729  0.9990091889242299  1.0000
  Ca  Ca13      1.0  0.004101982277145994  0.007500000132570729  0.9987876667037596  1.0000
  Ca  Ca14      1.0  0.009101982660557171  0.007500000132570729  0.9993936969356528  1.0000
  Ca  Ca15      1.0  0.008429631078140704  0.005000000364569507  0.9987061739863671  1.0000
  Ca  Ca16      1.0  0.003429631275655552  0.005000000364569507  0.9993122043111144  1.0000
  In  In17      1.0  0.0020533112118871627  0.005000000364569507  0.9987800045255188  1.0000
  In  In18      1.0  0.007053311014372314  0.005000000364569507  0.9993860347766436  1.0000
  In  In19      1.0  0.003911812657156756  0.005000001193136569  0.9997522915806664  1.0000
  In  In20      1.0  0.009038764547688951  0.005000000364569507  0.9991453856324013  1.0000
  In  In21      1.0  0.0054783020504513705  0.007500000132570729  0.999319866498971  1.0000
  In  In22      1.0  0.0004783022116583432  0.007500000132570729  0.9987138362490483  1.0000
  In  In23      1.0  0.003503821338366563  0.0075000009611377915  0.9995664381497774  1.0000
  In  In24      1.0  0.008492849191008922  0.007500000132570729  0.9989544852896185  1.0000
  In  In25      1.0  0.004553311258361245  0.007500000132570729  0.9990830193753353  1.0000
  In  In26      1.0  0.0094921610446288  0.007500002618271916  0.9996906870949724  1.0000
  In  In27      1.0  0.006538764501214869  0.007500000132570729  0.9988423707825849  1.0000
  In  In28      1.0  0.0015387645534982119  0.007500000132570729  0.9994484011121402  1.0000
  In  In29      1.0  0.007902075307569192  0.005000002021703631  0.9996437679252496  1.0000
  In  In30      1.0  0.0029783022944403015  0.005000000364569507  0.9990168510976628  1.0000
  In  In31      1.0  0.005992849144534841  0.005000000364569507  0.9986514698979261  1.0000
  In  In32      1.0  0.0009928489063551708  0.005000000364569507  0.9992575002370971  1.0000
  Pt  Pt9       1.0  0.0026790864692866545  0.007500000132570729  0.9986152034502195  1.0000
  Pt  Pt10      1.0  0.0076790868526978315  0.007500000132570729  0.9992212336821126  1.0000
  Pt  Pt11      1.0  0.004892571185838626  0.005000000364569507  0.9994819324874415  1.0000
  Pt  Pt12      1.0  0.009852527466926069  0.005000000364569507  0.9988786372206757  1.0000
  Pt  Pt13      1.0  0.0051790868062237495  0.005000000364569507  0.9989182182904202  1.0000
  Pt  Pt14      1.0  0.00014747310020296346  0.005000002021703631  0.9995204752049973  1.0000
  Pt  Pt15      1.0  0.007352526839525961  0.007500000132570729  0.9985756223900908  1.0000
  Pt  Pt16      1.0  0.0023525268918093037  0.007500000132570729  0.9991816527196461  1.0000
