data_image0
_chemical_formula_structural       HV30Pt10
_chemical_formula_sum              "H1 V30 Pt10"
_cell_length_a       10.777980719746155
_cell_length_b       6.816593170166016
_cell_length_c       103.39434814453125
_cell_angle_alpha    90.0
_cell_angle_beta     104.9632174757556
_cell_angle_gamma    71.56505218625028

_space_group_name_H-M_alt    "P 1"
_space_group_IT_number       1

loop_
  _space_group_symop_operation_xyz
  'x, y, z'

loop_
  _atom_site_type_symbol
  _atom_site_label
  _atom_site_symmetry_multiplicity
  _atom_site_fract_x
  _atom_site_fract_y
  _atom_site_fract_z
  _atom_site_occupancy
  H   H1        1.0  0.007979123058756364  0.002010438593038546  0.00019301995180732263  1.0000
  V   V1        1.0  0.0034999997576777384  0.001750000101487014  0.9998250527629593  1.0000
  V   V2        1.0  0.007499999697097173  0.009750000973392296  0.9996635621843859  1.0000
  V   V3        1.0  0.00949999966680689  0.00375000070435575  0.9999865429800395  1.0000
  V   V4        1.0  0.001499999977282288  0.0077500005491180505  0.999502071972401  1.0000
  V   V5        1.0  0.005499999727387456  0.0057500006740654665  0.00014803269389484535  1.0000
  V   V6        1.0  0.0024999999621371466  0.004750000141348154  0.9996635622261082  1.0000
  V   V7        1.0  0.006500000090870848  0.0027500000769813036  0.9995020722291089  1.0000
  V   V8        1.0  0.008500000060580565  0.006749999829804886  0.9998250524482838  1.0000
  V   V9        1.0  0.0004999999924274293  0.0007500000469600418  0.00014803302385650702  1.0000
  V   V10       1.0  0.004499999742532597  0.00874999998882887  0.999986542728427  1.0000
  V   V11       1.0  0.006500000090870848  0.00024999993489045925  0.9999057978816902  1.0000
  V   V12       1.0  0.0004999999924274293  0.00825000054154548  0.9997443076595146  1.0000
  V   V13       1.0  0.0024999999621371466  0.00224999999925731  6.728759045011172e-05  1.0000
  V   V14       1.0  0.004499999742532597  0.006250000666492897  0.9995828170758457  1.0000
  V   V15       1.0  0.008500000060580565  0.004250000507468912  0.9994213270839419  1.0000
  V   V16       1.0  0.005499999727387456  0.008249999996401441  0.9997443073295529  1.0000
  V   V17       1.0  0.00949999966680689  0.006250000026691724  0.9995828173274582  1.0000
  V   V18       1.0  0.001499999977282288  0.00025000005453261253  0.9999057976249823  1.0000
  V   V19       1.0  0.0034999997576777384  0.004250000243577859  0.999421327110378  1.0000
  V   V20       1.0  0.007499999697097173  0.0022500002738681407  6.728783696720196e-05  1.0000
  V   V21       1.0  0.004999999924274293  0.004750000094699191  0.9998654253223248  1.0000
  V   V22       1.0  0.008999999485065194  0.002750000314303741  0.9997039347335606  1.0000
  V   V23       1.0  0.0009999999848548586  0.006750000064408909  2.6915036180044684e-05  1.0000
  V   V24       1.0  0.002999999954564576  0.0007500000686239848  0.9995424445266711  1.0000
  V   V25       1.0  0.006999999515355477  0.008750000583340288  0.00018840524306951197  1.0000
  V   V26       1.0  0.006999999515355477  0.0037500002991585992  0.9997846798787275  1.0000
  V   V27       1.0  0.0009999999848548586  0.0017500000534788434  0.999623189671838  1.0000
  V   V28       1.0  0.002999999954564576  0.005750000079554049  0.9999461701792524  1.0000
  V   V29       1.0  0.004999999924274293  0.009750000378880882  0.9994616996697434  1.0000
  V   V30       1.0  0.008999999485065194  0.0077500005984854296  0.0001076603861418686  1.0000
  Pt  Pt1       1.0  0.004999999924274293  0.0022500002258599703  0.9996635623519144  1.0000
  Pt  Pt2       1.0  0.008999999485065194  0.0002500004454645199  0.9995020720513895  1.0000
  Pt  Pt3       1.0  0.0009999999848548586  0.0042500001955696875  0.9998250523540091  1.0000
  Pt  Pt4       1.0  0.002999999954564576  0.008250000494896517  0.00014803286142337638  1.0000
  Pt  Pt5       1.0  0.006999999515355477  0.006250000714501067  0.9999865425608986  1.0000
  Pt  Pt6       1.0  0.004999999924274293  0.0022500002258599703  6.728800449573303e-05  1.0000
  Pt  Pt7       1.0  0.008999999485065194  0.0002500004454645199  0.9999057977039709  1.0000
  Pt  Pt8       1.0  0.0009999999848548586  0.0042500001955696875  0.9994213269896671  1.0000
  Pt  Pt9       1.0  0.002999999954564576  0.008250000494896517  0.9997443074970814  1.0000
  Pt  Pt10      1.0  0.006999999515355477  0.006250000714501067  0.9995828171965566  1.0000
