data_image0
_chemical_formula_structural       COAl24Mn4
_chemical_formula_sum              "C1 O1 Al24 Mn4"
_cell_length_a       8.869704246520996
_cell_length_b       4.992786103028514
_cell_length_c       109.48658752441406
_cell_angle_alpha    88.36241751374732
_cell_angle_beta     90.0
_cell_angle_gamma    90.0

_space_group_name_H-M_alt    "P 1"
_space_group_IT_number       1

loop_
  _space_group_symop_operation_xyz
  'x, y, z'

loop_
  _atom_site_type_symbol
  _atom_site_label
  _atom_site_symmetry_multiplicity
  _atom_site_fract_x
  _atom_site_fract_y
  _atom_site_fract_z
  _atom_site_occupancy
  C   C1        1.0  0.002642707836835399  0.008535396724791009  0.0001298343491548081  1.0000
  O   O1        1.0  0.002642707836835399  0.008535396724791009  0.00023943703739293793  1.0000
  Al  Al1       1.0  0.004252117567610721  0.009722790013810921  0.9999873294820085  1.0000
  Al  Al2       1.0  0.004251905886785945  0.008973175982708402  0.9995467816332938  1.0000
  Al  Al3       1.0  0.009251654087404854  0.003074269550801115  0.9999905039390061  1.0000
  Al  Al4       1.0  0.009251906088386731  0.0011274021391043014  0.9995749860096617  1.0000
  Al  Al5       1.0  0.0018663047817206473  0.0026115472730836096  0.9998693766312636  1.0000
  Al  Al6       1.0  0.0017519058909859612  0.0013753233165044087  0.9994136186649452  1.0000
  Al  Al7       1.0  0.006751905987586338  0.00747525418949577  0.9992573333474254  1.0000
  Al  Al8       1.0  0.006751905987586338  0.008725254338783656  0.9997081489786184  1.0000
  Al  Al9       1.0  0.0017519058909859612  0.00747525418949577  0.9992573333474254  1.0000
  Al  Al10      1.0  0.0017519058909859612  0.008725254338783656  0.9997081489786184  1.0000
  Al  Al11      1.0  0.006637538281973159  0.00261237470118537  0.9998693505105166  1.0000
  Al  Al12      1.0  0.006751905987586338  0.0013753233165044087  0.9994136186649452  1.0000
  Al  Al13      1.0  0.0007476775156908579  0.0062772860931527745  0.9994976670336795  1.0000
  Al  Al14      1.0  0.0010332977910588494  0.00754636000904804  0.9999558151202619  1.0000
  Al  Al15      1.0  0.005747677454790621  0.0025732918793720454  0.9991732855224844  1.0000
  Al  Al16      1.0  0.005747677454790621  0.003823291842050074  0.9996241006095192  1.0000
  Al  Al17      1.0  0.007756134100380418  0.0062772860931527745  0.9994976670336795  1.0000
  Al  Al18      1.0  0.007470829508742432  0.0075473147050716324  0.9999558291193613  1.0000
  Al  Al19      1.0  0.002756134318781269  0.0025732918793720454  0.9991732855224844  1.0000
  Al  Al20      1.0  0.002756134318781269  0.003823291842050074  0.9996241006095192  1.0000
  Al  Al21      1.0  0.009251906088386731  0.0052327187628835444  0.9997394963495253  1.0000
  Al  Al22      1.0  0.009251906088386731  0.003982718986815372  0.9992886809900466  1.0000
  Al  Al23      1.0  0.004251905886785945  0.004867858799099591  0.9993822712941598  1.0000
  Al  Al24      1.0  0.004251389284773098  0.0059861329170948245  0.9998177624758153  1.0000
  Mn  Mn1       1.0  0.004251905886785945  0.00980277622319327  0.9993160273917895  1.0000
  Mn  Mn2       1.0  0.0042523800686335095  0.0010242978610091576  0.9997641495830969  1.0000
  Mn  Mn3       1.0  0.009251906088386731  0.009047802010585347  0.9993549249993525  1.0000
  Mn  Mn4       1.0  0.009252321890006826  0.00019722415469168827  0.9998096157141908  1.0000
