data_image0
_chemical_formula_structural       HSb3Rh9Sb3Rh9
_chemical_formula_sum              "H1 Sb6 Rh18"
_cell_length_a       5.62461519241333
_cell_length_b       5.624614997196281
_cell_length_c       104.44359588623047
_cell_angle_alpha    90.0
_cell_angle_beta     90.0
_cell_angle_gamma    59.999998851880875

_space_group_name_H-M_alt    "P 1"
_space_group_IT_number       1

loop_
  _space_group_symop_operation_xyz
  'x, y, z'

loop_
  _atom_site_type_symbol
  _atom_site_label
  _atom_site_symmetry_multiplicity
  _atom_site_fract_x
  _atom_site_fract_y
  _atom_site_fract_z
  _atom_site_occupancy
  H   H1        1.0  0.003333330947928563  0.004163524388342174  0.00011796336950207058  1.0000
  Sb  Sb1       1.0  0.006666666856207741  0.007496857578916517  0.9989097915947296  1.0000
  Sb  Sb2       1.0  1.9823801202079224e-10  0.0008301908153776786  0.9993495008192697  1.0000
  Sb  Sb3       1.0  0.00333333345724063  0.004163524005952022  0.9991296460643279  1.0000
  Rh  Rh1       1.0  0.00833333364268999  0.004163524005952022  0.9991296460643279  1.0000
  Rh  Rh2       1.0  0.001666666670758382  0.007496857578916517  0.9989097915947296  1.0000
  Rh  Rh3       1.0  0.005000000052527802  0.0008301908153776786  0.9993495008192697  1.0000
  Rh  Rh4       1.0  0.003333333134679906  0.009163524174203689  0.9991296460643279  1.0000
  Rh  Rh5       1.0  0.006666666420851788  0.002496857601859926  0.9989097915947296  1.0000
  Rh  Rh6       1.0  2.0683685810093184e-10  0.005830190983629345  0.9993495008192697  1.0000
  Rh  Rh7       1.0  0.008333332657810125  0.009163524174203689  0.9991296460643279  1.0000
  Rh  Rh8       1.0  0.0016666668977215681  0.002496857601859926  0.9989097915947296  1.0000
  Rh  Rh9       1.0  0.004999999729967078  0.005830190983629345  0.9993495008192697  1.0000
  Sb  Sb4       1.0  0.006666666856207741  0.007496857578916517  0.9995693552888679  1.0000
  Sb  Sb5       1.0  0.009999999527859252  0.0008301909109752166  6.723839013630097e-06  1.0000
  Sb  Sb6       1.0  0.0033333333685067173  0.004163522858781567  0.9997846220024119  1.0000
  Rh  Rh10      1.0  0.008339620546627062  0.004150944899524754  0.9997885882798814  1.0000
  Rh  Rh11      1.0  0.001666666670758382  0.007496857578916517  0.9995693552888679  1.0000
  Rh  Rh12      1.0  0.0049981228652020435  0.0008339425407526339  0.0  1.0000
  Rh  Rh13      1.0  0.003320758667998898  0.009169807609174897  0.9997885882798814  1.0000
  Rh  Rh14      1.0  0.006666666420851788  0.002496857601859926  0.9995693552888679  1.0000
  Rh  Rh15      1.0  3.748518724733198e-06  0.005828316124716015  0.0  1.0000
  Rh  Rh16      1.0  0.008339621600101342  0.009169809138735503  0.9997885882798814  1.0000
  Rh  Rh17      1.0  0.0016666668977215681  0.002496857601859926  0.9995693552888679  1.0000
  Rh  Rh18      1.0  0.004998121272095648  0.005828314212765258  0.0  1.0000
