data_image0
_chemical_formula_structural       COCa8Ge8
_chemical_formula_sum              "C1 O1 Ca8 Ge8"
_cell_length_a       5.9815693233469815
_cell_length_b       6.177333268749756
_cell_length_c       105.46544647216797
_cell_angle_alpha    92.22720222396165
_cell_angle_beta     91.83517104028863
_cell_angle_gamma    106.98531897990081

_space_group_name_H-M_alt    "P 1"
_space_group_IT_number       1

loop_
  _space_group_symop_operation_xyz
  'x, y, z'

loop_
  _atom_site_type_symbol
  _atom_site_label
  _atom_site_symmetry_multiplicity
  _atom_site_fract_x
  _atom_site_fract_y
  _atom_site_fract_z
  _atom_site_occupancy
  C   C1        1.0  0.0014510445421514976  0.003735104040923583  0.00017225559486822595  1.0000
  O   O1        1.0  0.0014510445421514976  0.003735104040923583  0.00028603716712812097  1.0000
  Ca  Ca1       1.0  0.008675795166246475  0.0005615381503278746  0.9997495912836022  1.0000
  Ca  Ca2       1.0  0.0007388282213969059  0.005979060273723627  1.4951714029216558e-05  1.0000
  Ca  Ca3       1.0  0.0029235937396700565  0.009438462375285287  0.9995216023694415  1.0000
  Ca  Ca4       1.0  0.0045233497408517925  0.004456013586839472  0.9997977305798048  1.0000
  Ca  Ca5       1.0  0.005409739259137839  0.0005710470527588988  0.9991778957510119  1.0000
  Ca  Ca6       1.0  0.007076406662202634  0.005571047453677046  0.9994581253456366  1.0000
  Ca  Ca7       1.0  0.009590260074203763  0.009438462375285287  0.9989611431275733  1.0000
  Ca  Ca8       1.0  0.0012569269114438444  0.004438461895446245  0.9992413724931023  1.0000
  Ge  Ge1       1.0  0.003446150570111053  0.009207470385748567  0.999817598821632  1.0000
  Ge  Ge2       1.0  0.001825140695968171  0.0041388838598389955  0.9995383921595868  1.0000
  Ge  Ge3       1.0  0.0018881231281564174  0.0011949999113813053  5.137278022258173e-07  1.0000
  Ge  Ge4       1.0  0.00984152562385613  0.005870625489284295  0.9997215647455645  1.0000
  Ge  Ge5       1.0  0.00015847400723155704  0.009138883708310877  0.9992581626840975  1.0000
  Ge  Ge6       1.0  0.00849180737613565  0.0041388838598389955  0.9989779332009253  1.0000
  Ge  Ge7       1.0  0.008174858867841157  0.000870625167287043  0.9994413354348738  1.0000
  Ge  Ge8       1.0  0.006508192556384943  0.005870625489284295  0.9991611056785685  1.0000
