data_image0
_chemical_formula_structural       COSb12Ru6Sb12Ru6
_chemical_formula_sum              "C1 O1 Sb24 Ru12"
_cell_length_a       6.4811882972717285
_cell_length_b       13.875516388827272
_cell_length_c       106.35945129394531
_cell_angle_alpha    102.49068899039642
_cell_angle_beta     90.0
_cell_angle_gamma    90.0

_space_group_name_H-M_alt    "P 1"
_space_group_IT_number       1

loop_
  _space_group_symop_operation_xyz
  'x, y, z'

loop_
  _atom_site_type_symbol
  _atom_site_label
  _atom_site_symmetry_multiplicity
  _atom_site_fract_x
  _atom_site_fract_y
  _atom_site_fract_z
  _atom_site_occupancy
  C   C1        1.0  0.004999999609146149  0.00025207184737602095  0.00020901267956166807  1.0000
  O   O1        1.0  0.004999999609146149  0.00025207184737602095  0.00032183786033032993  1.0000
  Sb  Sb1       1.0  0.0  0.0027749788822380985  0.9995094249482049  1.0000
  Sb  Sb2       1.0  0.0  0.009441645222585619  0.9997943035356128  1.0000
  Sb  Sb3       1.0  0.010000000367862447  0.006126294758110132  8.875753226359896e-05  1.0000
  Sb  Sb4       1.0  0.010000000367862447  0.003928626052196655  2.1012365379458136e-05  1.0000
  Sb  Sb5       1.0  0.0  0.0006072586430590412  0.9994510004038129  1.0000
  Sb  Sb6       1.0  0.0  0.0072739254646356395  0.999735879004799  1.0000
  Sb  Sb7       1.0  0.002500000091965612  0.005157866060741436  0.9994894071967856  1.0000
  Sb  Sb8       1.0  0.002500000091965612  0.0018245326155796311  0.9997742855548744  1.0000
  Sb  Sb9       1.0  0.0024999998045730745  0.008501561192926825  4.650185812874206e-05  1.0000
  Sb  Sb10      1.0  0.0024999998045730745  0.001524393476688722  4.3011880204697024e-05  1.0000
  Sb  Sb11      1.0  0.002500000091965612  0.008224371593800085  0.9994710181140463  1.0000
  Sb  Sb12      1.0  0.002500000091965612  0.004891038011144258  0.9997558970286631  1.0000
  Ru  Ru1       1.0  0.0  0.003357785244614933  0.9997650910096252  1.0000
  Ru  Ru2       1.0  0.010000000367862447  0.009975547711068152  4.221594252442636e-05  1.0000
  Ru  Ru3       1.0  0.0  0.0066911185522827155  0.999480212647657  1.0000
  Ru  Ru4       1.0  0.002500000091965612  0.003357785244614933  0.9993377732099715  1.0000
  Ru  Ru5       1.0  0.002500000091965612  2.445205080938815e-05  0.9996226518553564  1.0000
  Ru  Ru6       1.0  0.002500000091965612  0.0066912692457312874  0.9999073354743352  1.0000
  Sb  Sb13      1.0  0.005000000183931224  0.0027749788822380985  0.9995094249482049  1.0000
  Sb  Sb14      1.0  0.005000000183931224  0.009441645222585619  0.9997943035356128  1.0000
  Sb  Sb15      1.0  0.005000000183931224  0.006126294758110132  8.875753226359896e-05  1.0000
  Sb  Sb16      1.0  0.005000000183931224  0.003928626052196655  2.1012365379458136e-05  1.0000
  Sb  Sb17      1.0  0.005000000183931224  0.0006072586430590412  0.9994510004038129  1.0000
  Sb  Sb18      1.0  0.005000000183931224  0.0072739254646356395  0.999735879004799  1.0000
  Sb  Sb19      1.0  0.0075000002758968355  0.005157866060741436  0.9994894071967856  1.0000
  Sb  Sb20      1.0  0.0075000002758968355  0.0018245326155796311  0.9997742855548744  1.0000
  Sb  Sb21      1.0  0.0075000002758968355  0.008501561192926825  4.650185812874206e-05  1.0000
  Sb  Sb22      1.0  0.007499999701111761  0.001524393476688722  4.3011880204697024e-05  1.0000
  Sb  Sb23      1.0  0.0075000002758968355  0.008224371593800085  0.9994710181140463  1.0000
  Sb  Sb24      1.0  0.0075000002758968355  0.004891038011144258  0.9997558970286631  1.0000
  Ru  Ru7       1.0  0.005000000183931224  0.003357785244614933  0.9997650910096252  1.0000
  Ru  Ru8       1.0  0.004999999609146149  0.009975547711068152  4.221594252442636e-05  1.0000
  Ru  Ru9       1.0  0.005000000183931224  0.0066911185522827155  0.999480212647657  1.0000
  Ru  Ru10      1.0  0.0075000002758968355  0.003357785244614933  0.9993377732099715  1.0000
  Ru  Ru11      1.0  0.0075000002758968355  2.445205080938815e-05  0.9996226518553564  1.0000
  Ru  Ru12      1.0  0.0075000002758968355  0.0066912692457312874  0.9999073354743352  1.0000
