data_image0
_chemical_formula_structural       HCo2Sn2Rh4Co2Sn2Rh4Co2Sn2Rh4Co2Sn2Rh4
_chemical_formula_sum              "H1 Co8 Sn8 Rh16"
_cell_length_a       8.167047500610352
_cell_length_b       7.163628101348877
_cell_length_c       98.58466339111328
_cell_angle_alpha    90.0
_cell_angle_beta     90.0
_cell_angle_gamma    90.0

_space_group_name_H-M_alt    "P 1"
_space_group_IT_number       1

loop_
  _space_group_symop_operation_xyz
  'x, y, z'

loop_
  _atom_site_type_symbol
  _atom_site_label
  _atom_site_symmetry_multiplicity
  _atom_site_fract_x
  _atom_site_fract_y
  _atom_site_fract_z
  _atom_site_occupancy
  H   H1        1.0  0.004166666210529942  0.00752715207818006  0.00010066710803053687  1.0000
  Co  Co1       1.0  0.0  4.39000019211122e-08  0.9995681654890471  1.0000
  Co  Co2       1.0  0.0024999998631589824  0.005000043744791812  0.9993610582152805  1.0000
  Sn  Sn1       1.0  0.0024999998631589824  4.39000019211122e-08  0.9993610582152805  1.0000
  Sn  Sn2       1.0  0.0  0.005000043744791812  0.9995681654890471  1.0000
  Rh  Rh1       1.0  0.0  0.002500043973604322  0.9993610582152805  1.0000
  Rh  Rh2       1.0  0.0024999998631589824  0.002500043973604322  0.9995681654890471  1.0000
  Rh  Rh3       1.0  0.0024999998631589824  0.007500044036007734  0.9995681654890471  1.0000
  Rh  Rh4       1.0  0.0  0.007500044036007734  0.9993610582152805  1.0000
  Co  Co3       1.0  0.00999999945263593  9.740000200293339e-08  0.9999584050844669  1.0000
  Co  Co4       1.0  0.0024999998631589824  0.004999999022346545  0.9997817036292624  1.0000
  Sn  Sn3       1.0  0.0024999994070222576  0.009999956442418426  0.9997662275902941  1.0000
  Sn  Sn4       1.0  0.00999999945263593  0.005000087427180211  0.0  1.0000
  Rh  Rh5       1.0  0.00999999945263593  0.0025922957176049578  0.9997752325566728  1.0000
  Rh  Rh6       1.0  0.00249999963509062  0.002418731547727095  0.9999686712540056  1.0000
  Rh  Rh7       1.0  0.0024999994070222576  0.007581271957264546  0.9999686742770237  1.0000
  Rh  Rh8       1.0  0.00999999945263593  0.0074077603102584485  0.9997752210692039  1.0000
  Co  Co5       1.0  0.004999999726317965  4.39000019211122e-08  0.9995681654890471  1.0000
  Co  Co6       1.0  0.0074999998175453095  0.005000043744791812  0.9993610582152805  1.0000
  Sn  Sn5       1.0  0.0074999998175453095  4.39000019211122e-08  0.9993610582152805  1.0000
  Sn  Sn6       1.0  0.004999999726317965  0.005000043744791812  0.9995681654890471  1.0000
  Rh  Rh9       1.0  0.004999999726317965  0.002500043973604322  0.9993610582152805  1.0000
  Rh  Rh10      1.0  0.0074999998175453095  0.002500043973604322  0.9995681654890471  1.0000
  Rh  Rh11      1.0  0.0074999998175453095  0.007500044036007734  0.9995681654890471  1.0000
  Rh  Rh12      1.0  0.004999999726317965  0.007500044036007734  0.9993610582152805  1.0000
  Co  Co7       1.0  0.004999999726317965  9.740000200293339e-08  0.9999584050844669  1.0000
  Co  Co8       1.0  0.0074999998175453095  0.004999999022346545  0.9997817036292624  1.0000
  Sn  Sn7       1.0  0.007499999361408585  0.009999956442418426  0.9997662275902941  1.0000
  Sn  Sn8       1.0  0.00499999927018124  0.005000087427180211  0.0  1.0000
  Rh  Rh13      1.0  0.004999999726317965  0.0025922957176049578  0.9997752325566728  1.0000
  Rh  Rh14      1.0  0.007499999361408585  0.002418731547727095  0.9999686712540056  1.0000
  Rh  Rh15      1.0  0.007499999361408585  0.007581271957264546  0.9999686742770237  1.0000
  Rh  Rh16      1.0  0.00499999927018124  0.0074077603102584485  0.9997752210692039  1.0000
