data_image0
_chemical_formula_structural       COIr6Nb6
_chemical_formula_sum              "C1 O1 Ir6 Nb6"
_cell_length_a       4.86771631359816
_cell_length_b       5.663856571093334
_cell_length_c       99.57274627685547
_cell_angle_alpha    86.13062830812967
_cell_angle_beta     88.83836287258407
_cell_angle_gamma    75.45179573363326

_space_group_name_H-M_alt    "P 1"
_space_group_IT_number       1

loop_
  _space_group_symop_operation_xyz
  'x, y, z'

loop_
  _atom_site_type_symbol
  _atom_site_label
  _atom_site_symmetry_multiplicity
  _atom_site_fract_x
  _atom_site_fract_y
  _atom_site_fract_z
  _atom_site_occupancy
  C   C1        1.0  0.006803654395505032  0.00911065331973992  0.00014401491872986056  1.0000
  O   O1        1.0  0.006803654395505032  0.00911065331973992  0.00026453006737635657  1.0000
  Ir  Ir1       1.0  0.007272567476201188  0.004338059860550711  0.9997372260090249  1.0000
  Ir  Ir2       1.0  0.006442482492986523  0.0069190464946885365  0.9999670564408019  1.0000
  Ir  Ir3       1.0  0.0021614569394961783  0.0008782735171305258  0.9998637832269014  1.0000
  Ir  Ir4       1.0  0.0036404059584915906  0.005645666253791553  0.9993697679331752  1.0000
  Ir  Ir5       1.0  0.002807072770330028  0.008145666281028934  0.9996172647826191  1.0000
  Ir  Ir6       1.0  0.008223739652241805  0.0018956663831691117  0.9994935162318349  1.0000
  Nb  Nb1       1.0  0.0017762606134996144  0.005712505424596776  0.9998779113420848  1.0000
  Nb  Nb2       1.0  0.007475457159792996  0.009354333909632733  0.9997334190636951  1.0000
  Nb  Nb3       1.0  0.007190116392602373  0.0017104760259079354  0.9999722802004106  1.0000
  Nb  Nb4       1.0  0.008223739250091528  0.006895666607877504  0.9994935162672871  1.0000
  Nb  Nb5       1.0  0.0036404058912766634  0.0006456663269920135  0.9993697678970447  1.0000
  Nb  Nb6       1.0  0.00280707274024386  0.0031456662265541718  0.9996172647469418  1.0000
