data_image0
_chemical_formula_structural       COAu12Se12
_chemical_formula_sum              "C1 O1 Au12 Se12"
_cell_length_a       5.147601936124288
_cell_length_b       12.862400415025025
_cell_length_c       101.7051773071289
_cell_angle_alpha    100.29874238155041
_cell_angle_beta     93.94729711224984
_cell_angle_gamma    93.75707881087001

_space_group_name_H-M_alt    "P 1"
_space_group_IT_number       1

loop_
  _space_group_symop_operation_xyz
  'x, y, z'

loop_
  _atom_site_type_symbol
  _atom_site_label
  _atom_site_symmetry_multiplicity
  _atom_site_fract_x
  _atom_site_fract_y
  _atom_site_fract_z
  _atom_site_occupancy
  C   C1        1.0  0.006464738716922736  0.0021609765375590613  0.0001963031814735735  1.0000
  O   O1        1.0  0.006464738716922736  0.0021609765375590613  0.0003142909283294965  1.0000
  Au  Au1       1.0  0.009908744550429319  0.002549038314270668  9.215704579949394e-05  1.0000
  Au  Au2       1.0  0.005724157079371962  0.007538029196274665  0.9999537720565691  1.0000
  Au  Au3       1.0  0.0022444069137436667  0.005215345105383786  4.966875771895131e-05  1.0000
  Au  Au4       1.0  0.008804361827893256  0.00997418185879088  0.9998647613547654  1.0000
  Au  Au5       1.0  0.0017579219034260622  0.0025258180821493533  0.9997830794962554  1.0000
  Au  Au6       1.0  0.007869032765844115  0.007525817999465684  0.9996098929577667  1.0000
  Au  Au7       1.0  0.004813477318148783  0.0050258181884569285  0.9996964863768053  1.0000
  Au  Au8       1.0  0.0009245885471052545  2.5818199622915453e-05  0.9995232998299944  1.0000
  Au  Au9       1.0  0.003980144099452737  0.0025258180821493533  0.9994367064129375  1.0000
  Au  Au10      1.0  9.125521576609455e-05  0.007525817999465684  0.999263519640912  1.0000
  Au  Au11      1.0  0.0070356996048523525  0.0050258181884569285  0.9993501130007766  1.0000
  Au  Au12      1.0  0.0031468109244857188  2.5818199622915453e-05  0.999176926161255  1.0000
  Se  Se1       1.0  0.002465518322939212  0.0012673225772399657  0.999953098190741  1.0000
  Se  Se2       1.0  0.00538022671517998  0.00667771211035486  0.00016001194898726233  1.0000
  Se  Se3       1.0  0.0090398106253916  0.003791824364898701  0.9999368774504822  1.0000
  Se  Se4       1.0  0.0033115703239791064  0.008268289004050914  0.00015122005341580575  1.0000
  Se  Se5       1.0  0.004430120370888649  0.001405888300287206  0.9996184882455564  1.0000
  Se  Se6       1.0  0.008319009428839747  0.006405888365252946  0.9997916750881148  1.0000
  Se  Se7       1.0  0.0013079457515191872  0.003645748011660911  0.9996012976673913  1.0000
  Se  Se8       1.0  0.00519683465696864  0.008645748224276061  0.9997744845127567  1.0000
  Se  Se9       1.0  0.006652342294884639  0.001405888300287206  0.999272114868264  1.0000
  Se  Se10      1.0  0.0005412313800388066  0.006405888365252946  0.9994453017695225  1.0000
  Se  Se11      1.0  0.0035301680382227568  0.003645748011660911  0.9992549242913625  1.0000
  Se  Se12      1.0  0.007419056943672209  0.008645748224276061  0.9994281111367279  1.0000
