data_image0
_chemical_formula_structural       COPt18Rh6
_chemical_formula_sum              "C1 O1 Pt18 Rh6"
_cell_length_a       7.397922670863541
_cell_length_b       4.848725891442568
_cell_length_c       101.11552429199219
_cell_angle_alpha    89.92723306192595
_cell_angle_beta     93.93610390048941
_cell_angle_gamma    90.15302838095417

_space_group_name_H-M_alt    "P 1"
_space_group_IT_number       1

loop_
  _space_group_symop_operation_xyz
  'x, y, z'

loop_
  _atom_site_type_symbol
  _atom_site_label
  _atom_site_symmetry_multiplicity
  _atom_site_fract_x
  _atom_site_fract_y
  _atom_site_fract_z
  _atom_site_occupancy
  C   C1        1.0  0.0006703463199490746  0.008607220454013607  0.0001159524375221991  1.0000
  O   O1        1.0  0.0006703463199490746  0.008607220454013607  0.0002346282273979247  1.0000
  Pt  Pt1       1.0  0.004583333171812933  0.0008333333293352881  0.999203439449747  1.0000
  Pt  Pt2       1.0  0.009027777979678278  0.004166666773371073  0.9993743963580712  1.0000
  Pt  Pt3       1.0  0.00013888890024579205  0.0074999999181457454  0.9990324824620027  1.0000
  Pt  Pt4       1.0  0.007361111050540961  0.004166666879258651  0.9991179611032999  1.0000
  Pt  Pt5       1.0  0.0018055555454605306  0.007500000195290712  0.9992889180100603  1.0000
  Pt  Pt6       1.0  0.00625000010095025  0.0008333333194856535  0.9994598749992479  1.0000
  Pt  Pt7       1.0  0.0037499999596199  0.0058333335907159055  0.9990752216351927  1.0000
  Pt  Pt8       1.0  0.008194444767485246  0.009166666650599918  0.9992461788382757  1.0000
  Pt  Pt9       1.0  0.0026388890100291894  0.002499999934904965  0.999417135825882  1.0000
  Pt  Pt10      1.0  0.007916666525336317  0.0008333333556652488  0.999716310546211  1.0000
  Pt  Pt11      1.0  0.002361111020255886  0.004166666815754225  0.9998872671582273  1.0000
  Pt  Pt12      1.0  0.0034722222222222225  0.0074999997042564884  0.9995453532635876  1.0000
  Pt  Pt13      1.0  0.0006944444065881005  0.004166666538733617  0.9996308316103282  1.0000
  Pt  Pt14      1.0  0.00513888915135954  0.007499999982520685  0.9998017891078064  1.0000
  Pt  Pt15      1.0  0.009583333454473634  0.0008333333458156144  0.9999727455062413  1.0000
  Pt  Pt16      1.0  0.007083333313143284  0.005833333376951008  0.9995880927316714  1.0000
  Pt  Pt17      1.0  0.00152777768187504  0.009166667076637408  0.9997590493430393  1.0000
  Pt  Pt18      1.0  0.005972222363552573  0.002499999913215954  0.9999300063328782  1.0000
  Rh  Rh1       1.0  0.009861111191871311  0.009166666926874373  0.9995026140904888  1.0000
  Rh  Rh2       1.0  0.0009722222070796847  0.002500000041289978  0.9991607002770089  1.0000
  Rh  Rh3       1.0  0.005416666888757218  0.005833333484828328  0.9993316571846994  1.0000
  Rh  Rh4       1.0  0.0031944444848245445  0.00916666658610062  1.548489193572551e-05  1.0000
  Rh  Rh5       1.0  0.0043055554344152555  0.0025000000191035317  0.9996735713728422  1.0000
  Rh  Rh6       1.0  0.008750000242280601  0.00583333327106343  0.9998445282811781  1.0000
