data_image0
_chemical_formula_structural       HCu4Ni4Sb8Cu4Ni4Sb8
_chemical_formula_sum              "H1 Cu8 Ni8 Sb16"
_cell_length_a       6.644524288740778
_cell_length_b       7.175960063934326
_cell_length_c       109.86714935302734
_cell_angle_alpha    90.0
_cell_angle_beta     102.85164358709645
_cell_angle_gamma    90.0

_space_group_name_H-M_alt    "P 1"
_space_group_IT_number       1

loop_
  _space_group_symop_operation_xyz
  'x, y, z'

loop_
  _atom_site_type_symbol
  _atom_site_label
  _atom_site_symmetry_multiplicity
  _atom_site_fract_x
  _atom_site_fract_y
  _atom_site_fract_z
  _atom_site_occupancy
  H   H1        1.0  0.007973690858478145  0.007500000083061561  0.0001647729817108457  1.0000
  Cu  Cu1       1.0  0.005564491856247386  0.0008333333497726007  0.9998559295948296  1.0000
  Cu  Cu2       1.0  0.0005644920877095965  0.0008333333497726007  0.9995535404778502  1.0000
  Cu  Cu3       1.0  0.003064492097773171  0.00583333351330005  0.999704735038032  1.0000
  Cu  Cu4       1.0  0.008064491902252297  0.00583333351330005  7.124155495066583e-06  1.0000
  Ni  Ni1       1.0  0.003064492097773171  0.0008333333497726007  7.1240224962922376e-06  1.0000
  Ni  Ni2       1.0  0.008064491902252297  0.0008333333497726007  0.9997047351710309  1.0000
  Ni  Ni3       1.0  0.0005644920877095965  0.00583333351330005  0.9998559294623144  1.0000
  Ni  Ni4       1.0  0.005564491856247386  0.00583333351330005  0.9995535406103654  1.0000
  Sb  Sb1       1.0  0.00419347620130969  0.004166666683971159  0.999938845539364  1.0000
  Sb  Sb2       1.0  0.009193476580850209  0.004166666683971159  0.9996364566956342  1.0000
  Sb  Sb3       1.0  0.0016934762990701265  0.009166666652823072  0.9997876509806325  1.0000
  Sb  Sb4       1.0  0.006693476534845298  0.009166666652823072  9.004010389721533e-05  1.0000
  Sb  Sb5       1.0  0.004435508040241563  0.002500000114209647  0.9996218190973656  1.0000
  Sb  Sb6       1.0  0.00943550784472069  0.002500000114209647  0.9999242082148286  1.0000
  Sb  Sb7       1.0  0.0019355078504713038  0.007500000083061561  7.54025036947097e-05  1.0000
  Sb  Sb8       1.0  0.006935507798715778  0.007500000083061561  0.9997730136541632  1.0000
  Cu  Cu5       1.0  0.005564491856247386  0.0008333333497726007  0.9992511516259012  1.0000
  Cu  Cu6       1.0  0.0005644920877095965  0.0008333333497726007  0.9989487622376638  1.0000
  Cu  Cu7       1.0  0.003064492097773171  0.00583333351330005  0.9990999567978458  1.0000
  Cu  Cu8       1.0  0.008064491902252297  0.00583333351330005  0.999402345644051  1.0000
  Ni  Ni5       1.0  0.003064492097773171  0.0008333333497726007  0.9994023460535678  1.0000
  Ni  Ni6       1.0  0.008064491902252297  0.0008333333497726007  0.9990999569308445  1.0000
  Ni  Ni7       1.0  0.0005644920877095965  0.00583333351330005  0.999251151493386  1.0000
  Ni  Ni8       1.0  0.005564491856247386  0.00583333351330005  0.9989487623701792  1.0000
  Sb  Sb9       1.0  0.00419347620130969  0.004166666683971159  0.9993340675704355  1.0000
  Sb  Sb10      1.0  0.009193476580850209  0.004166666683971159  0.9990316784554479  1.0000
  Sb  Sb11      1.0  0.0016934762990701265  0.009166666652823072  0.999182873011704  1.0000
  Sb  Sb12      1.0  0.006693476534845298  0.009166666652823072  0.9994852621349688  1.0000
  Sb  Sb13      1.0  0.004435508040241563  0.002500000114209647  0.9990170408571794  1.0000
  Sb  Sb14      1.0  0.00943550784472069  0.002500000114209647  0.9993194297033845  1.0000
  Sb  Sb15      1.0  0.0019355078504713038  0.007500000083061561  0.9994706245347662  1.0000
  Sb  Sb16      1.0  0.006935507798715778  0.007500000083061561  0.9991682354139769  1.0000
