data_image0
_chemical_formula_structural       HSn12Rh12
_chemical_formula_sum              "H1 Sn12 Rh12"
_cell_length_a       5.231786727905273
_cell_length_b       11.698630388330887
_cell_length_c       99.59545135498047
_cell_angle_alpha    71.56505043856573
_cell_angle_beta     90.0
_cell_angle_gamma    90.0

_space_group_name_H-M_alt    "P 1"
_space_group_IT_number       1

loop_
  _space_group_symop_operation_xyz
  'x, y, z'

loop_
  _atom_site_type_symbol
  _atom_site_label
  _atom_site_symmetry_multiplicity
  _atom_site_fract_x
  _atom_site_fract_y
  _atom_site_fract_z
  _atom_site_occupancy
  H   H1        1.0  0.0012517553297975582  0.0038454241193226395  0.99985716330969  1.0000
  Sn  Sn1       1.0  0.006632342299640936  0.00696596926325334  0.9992141247324994  1.0000
  Sn  Sn2       1.0  0.0063740129344161765  0.0035930962890269535  0.9997236661607333  1.0000
  Sn  Sn3       1.0  0.0065999782329364265  0.00035139415143288803  0.9994520382197907  1.0000
  Sn  Sn4       1.0  0.0016323424990147516  0.005299302337007062  0.9992237191423364  1.0000
  Sn  Sn5       1.0  0.0014038214773927865  0.0018791187966953288  0.999729614937051  1.0000
  Sn  Sn6       1.0  0.0016241841936757804  0.008664819585868191  0.9994645857143727  1.0000
  Sn  Sn7       1.0  0.0036889521220984387  0.00917800445069116  0.9997603565010443  1.0000
  Sn  Sn8       1.0  0.0034757342869280406  0.005895397377431019  0.9995036485429624  1.0000
  Sn  Sn9       1.0  0.003428156573976754  0.0025645736150307036  0.9992585946181736  1.0000
  Sn  Sn10      1.0  0.008539733794486108  0.006407935083428386  0.9997006214155258  1.0000
  Sn  Sn11      1.0  0.008428156374602938  0.003034030951571166  0.9994268795502939  1.0000
  Sn  Sn12      1.0  0.008428156374602938  0.009700697985229698  0.9991792489574285  1.0000
  Rh  Rh1       1.0  0.003554418943470072  0.007091045461505768  0.9997025694013425  1.0000
  Rh  Rh2       1.0  0.0035389058804748733  0.0035843814629952756  0.9994852354335045  1.0000
  Rh  Rh3       1.0  0.00359502248913857  0.00029930235546854256  0.9992361154032874  1.0000
  Rh  Rh4       1.0  0.00874824462747948  0.008785142791915999  0.9996787431341249  1.0000
  Rh  Rh5       1.0  0.008595022289764755  0.005299302337007062  0.9994493587605047  1.0000
  Rh  Rh6       1.0  0.008595022289764755  0.001965969155841087  0.9992017285825767  1.0000
  Rh  Rh7       1.0  0.006465476384479119  0.00458945369247236  0.9991833812842053  1.0000
  Rh  Rh8       1.0  0.006400936232096459  0.001319800704781203  0.9996659587759582  1.0000
  Rh  Rh9       1.0  0.006465476384479119  0.007922786873638335  0.999431011761367  1.0000
  Rh  Rh10      1.0  0.0014654763168344322  0.0076758179077880415  0.9992544622913968  1.0000
  Rh  Rh11      1.0  0.0012517553297975582  0.004338943478898992  0.999724050450512  1.0000
  Rh  Rh12      1.0  0.001499756953349808  0.0010395067517086712  0.9995035004362297  1.0000
