data_image0
_chemical_formula_structural       HGe12Ru12Ge12Ru12
_chemical_formula_sum              "H1 Ge24 Ru24"
_cell_length_a       4.92053747177124
_cell_length_b       11.002655982681835
_cell_length_c       111.75214385986328
_cell_angle_alpha    71.56505117707799
_cell_angle_beta     90.0
_cell_angle_gamma    90.0

_space_group_name_H-M_alt    "P 1"
_space_group_IT_number       1

loop_
  _space_group_symop_operation_xyz
  'x, y, z'

loop_
  _atom_site_type_symbol
  _atom_site_label
  _atom_site_symmetry_multiplicity
  _atom_site_fract_x
  _atom_site_fract_y
  _atom_site_fract_z
  _atom_site_occupancy
  H   H1        1.0  0.008922858967314541  0.005651734144282624  0.999824036174386  1.0000
  Ge  Ge1       1.0  0.009177558467950013  0.007021044495679061  0.9988481827160376  1.0000
  Ge  Ge2       1.0  0.009177558467950013  0.00368771133365567  0.9986406196341737  1.0000
  Ge  Ge3       1.0  0.009177558467950013  0.0003543779485724583  0.9990557459381875  1.0000
  Ge  Ge4       1.0  0.0041775585436590245  0.005354377914667366  0.9991631215055228  1.0000
  Ge  Ge5       1.0  0.0041775585436590245  0.002021044752643975  0.9989555584236589  1.0000
  Ge  Ge6       1.0  0.0041775585436590245  0.008687711076690757  0.9987479952084538  1.0000
  Ge  Ge7       1.0  0.005901938795744596  0.008112917681049941  0.9990235483731797  1.0000
  Ge  Ge8       1.0  0.005901938795744596  0.00477958451902655  0.9988159847579512  1.0000
  Ge  Ge9       1.0  0.005901938795744596  0.0014462511785553027  0.9986084216816432  1.0000
  Ge  Ge10      1.0  0.000901938966089873  0.007595837891319876  0.9991953194636091  1.0000
  Ge  Ge11      1.0  0.000901938966089873  0.0042625047292964855  0.9989877563817452  1.0000
  Ge  Ge12      1.0  0.000901938966089873  0.0009291714780491662  0.9987801933026592  1.0000
  Ru  Ru1       1.0  0.006261094777144163  0.007021044495679061  0.9986665779146087  1.0000
  Ru  Ru2       1.0  0.006261094777144163  0.00368771133365567  0.9990817042116775  1.0000
  Ru  Ru3       1.0  0.006261094777144163  0.0003543779485724583  0.9988741411367585  1.0000
  Ru  Ru4       1.0  0.0012610948528531758  0.005354377914667366  0.9987220369280189  1.0000
  Ru  Ru5       1.0  0.0012610948528531758  0.002021044752643975  0.9991371632250878  1.0000
  Ru  Ru6       1.0  0.0012610948528531758  0.008687711076690757  0.9989296005432474  1.0000
  Ru  Ru7       1.0  0.008818402486550445  0.006168609075872854  0.9990840834181071  1.0000
  Ru  Ru8       1.0  0.008818402486550445  0.0028352753785058924  0.9988765198195462  1.0000
  Ru  Ru9       1.0  0.008818402486550445  0.009501942237896244  0.9986689565876734  1.0000
  Ru  Ru10      1.0  0.003818402562259457  0.009540147210288391  0.9991347843964583  1.0000
  Ru  Ru11      1.0  0.003818402562259457  0.006206814048265  0.9989272213145944  1.0000
  Ru  Ru12      1.0  0.003818402562259457  0.0028734805293458955  0.9987196582438422  1.0000
  Ge  Ge13      1.0  0.009177558467950013  0.007021044495679061  0.999470872628335  1.0000
  Ge  Ge14      1.0  0.009177558467950013  0.00368771133365567  0.9992633095464711  1.0000
  Ge  Ge15      1.0  0.008629822694339581  0.00036802896426711  0.9997021605184597  1.0000
  Ge  Ge16      1.0  0.004247839976466005  0.005263232816539203  0.999785831941248  1.0000
  Ge  Ge17      1.0  0.00416263364760447  0.002027361628333897  0.9995774318935512  1.0000
  Ge  Ge18      1.0  0.0041775585436590245  0.008687711076690757  0.9993706845873865  1.0000
  Ge  Ge19      1.0  0.005984133041568971  0.008094437620979082  0.9996490900529998  1.0000
  Ge  Ge20      1.0  0.005901938795744596  0.00477958451902655  0.9994386746702486  1.0000
  Ge  Ge21      1.0  0.005901938795744596  0.0014462511785553027  0.9992311115939406  1.0000
  Ge  Ge22      1.0  0.0013432804867774513  0.0075575758156134895  0.9998052216913803  1.0000
  Ge  Ge23      1.0  0.000822441380631963  0.004318174393453164  0.9996192368659869  1.0000
  Ge  Ge24      1.0  0.000901938966089873  0.0009291714780491662  0.999402882681592  1.0000
  Ru  Ru13      1.0  0.006261094777144163  0.007021044495679061  0.9992892672935414  1.0000
  Ru  Ru14      1.0  0.006035506905752092  0.0036919137806880062  0.9996869609332223  1.0000
  Ru  Ru15      1.0  0.006261094777144163  0.0003543779485724583  0.9994968305156913  1.0000
  Ru  Ru16      1.0  0.0012610948528531758  0.005354377914667366  0.9993447268403163  1.0000
  Ru  Ru17      1.0  0.0013100549244654217  0.0020639764518723216  0.9997464859077033  1.0000
  Ru  Ru18      1.0  0.0012881171972778187  0.00869442928161107  0.9995497728854318  1.0000
  Ru  Ru19      1.0  0.008922858967314541  0.006176471488452248  0.9997054036721682  1.0000
  Ru  Ru20      1.0  0.008818402486550445  0.0028352753785058924  0.9994992097318436  1.0000
  Ru  Ru21      1.0  0.008818402486550445  0.009501942237896244  0.9992916464999709  1.0000
  Ru  Ru22      1.0  0.0035743269287143325  0.009645622028229321  0.9997375942298198  1.0000
  Ru  Ru23      1.0  0.0038402465049086087  0.006247411649523795  0.9995465740530769  1.0000
  Ru  Ru24      1.0  0.003818402562259457  0.0028734805293458955  0.9993423476227751  1.0000
