data_image0
_chemical_formula_structural       HSi18W30
_chemical_formula_sum              "H1 Si18 W30"
_cell_length_a       7.285191346913954
_cell_length_b       10.144383806024956
_cell_length_c       109.37139892578125
_cell_angle_alpha    87.38985029316525
_cell_angle_beta     85.66559390140397
_cell_angle_gamma    75.35267367425654

_space_group_name_H-M_alt    "P 1"
_space_group_IT_number       1

loop_
  _space_group_symop_operation_xyz
  'x, y, z'

loop_
  _atom_site_type_symbol
  _atom_site_label
  _atom_site_symmetry_multiplicity
  _atom_site_fract_x
  _atom_site_fract_y
  _atom_site_fract_z
  _atom_site_occupancy
  H   H1        1.0  0.0028434029195393376  0.0003836887072505121  6.376546476869968e-05  1.0000
  Si  Si1       1.0  0.0006249996976066393  0.005833985651188218  0.9995836564435107  1.0000
  Si  Si2       1.0  0.0013958459146820863  0.009176941512028955  0.9999315782306019  1.0000
  Si  Si3       1.0  0.009791666467020416  0.0025006520824378373  0.9992836738151653  1.0000
  Si  Si4       1.0  0.009374999841470949  0.0008339852980626471  0.9991336824465467  1.0000
  Si  Si5       1.0  0.00020833323342064224  0.004167318771886799  0.9994336650744807  1.0000
  Si  Si6       1.0  0.0010411055623836627  0.007533657620771193  0.9997308789964603  1.0000
  Si  Si7       1.0  0.009370287709094979  0.0027216600873221667  0.9997462126525447  1.0000
  Si  Si8       1.0  0.007807613886482549  0.006106574290475499  0.9991582143214242  1.0000
  Si  Si9       1.0  0.00864094720389955  0.009439907669373422  0.9994581965141547  1.0000
  Si  Si10      1.0  0.005420557942867393  0.006651751948754976  0.9995100613746862  1.0000
  Si  Si11      1.0  0.006247394082293455  0.009983781041271652  0.9997954562987589  1.0000
  Si  Si12      1.0  0.004587224625450395  0.003318418569857053  0.9992100791819558  1.0000
  Si  Si13      1.0  0.00633694242677309  0.0068860572197444805  0.9998353681593126  1.0000
  Si  Si14      1.0  0.004579441596210195  1.6219000495888542e-05  0.9992072775153711  1.0000
  Si  Si15      1.0  0.005412774880468161  0.0033495524743200403  0.9995072597078676  1.0000
  Si  Si16      1.0  0.0013590518645285104  0.007228063511497441  0.9992591421048064  1.0000
  Si  Si17      1.0  0.0021923854127656782  0.0005613966113122514  0.999559124570041  1.0000
  Si  Si18      1.0  0.003087055056156422  0.004161089712764714  0.9998981994031049  1.0000
  W   W1        1.0  0.0002978460292640714  0.0029787136695907713  0.9999589463402124  1.0000
  W   W2        1.0  0.00861584120072104  0.006743477264946497  0.9993964895768715  1.0000
  W   W3        1.0  0.009449174548505196  7.681020457329783e-05  0.999696472043792  1.0000
  W   W4        1.0  0.001384158380524772  0.009924493915924365  0.9993208490395078  1.0000
  W   W5        1.0  0.002217491879023392  0.0032578271581285186  0.9996208315043915  1.0000
  W   W6        1.0  0.0030872077804996395  0.006669033078822901  0.9998983620224432  1.0000
  W   W7        1.0  0.004791666238018812  0.0075006521507847215  0.9992836738977756  1.0000
  W   W8        1.0  0.005625000026085339  0.0008339852980626471  0.9995836563616024  1.0000
  W   W9        1.0  0.00670437163446972  0.004384215711662027  0.9998825399579416  1.0000
  W   W10       1.0  0.005208332830409247  0.00916731903008614  0.9994336652661601  1.0000
  W   W11       1.0  0.005804110678330375  0.00263581696981335  0.9997428140971323  1.0000
  W   W12       1.0  0.004374999512992249  0.005833985651188218  0.9991336825284549  1.0000
  W   W13       1.0  0.007738127754379068  0.004754248782562765  0.9996205077873793  1.0000
  W   W14       1.0  0.00861460058496302  0.008172327362209278  0.9999028478790152  1.0000
  W   W15       1.0  0.006904794949779823  0.0014209154036648414  0.9993205250470926  1.0000
  W   W16       1.0  0.0030952045561387334  0.005247055640512252  0.9993968138427308  1.0000
  W   W17       1.0  0.003928538006191859  0.00858038863970526  0.9996967960363974  1.0000
  W   W18       1.0  0.004617437843375027  0.0016871625911753516  0.9999696285076737  1.0000
  W   W19       1.0  0.0038841768231517465  0.005424501239672756  0.9996808266234085  1.0000
  W   W20       1.0  0.004811351559444684  0.008998142264848321  0.9999666757700975  1.0000
  W   W21       1.0  0.003050843505734749  0.002091167860774832  0.9993808444306781  1.0000
  W   W22       1.0  0.009742862450969603  0.0054028083182034595  0.9998163888842042  1.0000
  W   W23       1.0  0.008113151577123797  0.008754234256571555  0.9992155317711945  1.0000
  W   W24       1.0  0.00894648481921354  0.0020875674987757098  0.999515514237369  1.0000
  W   W25       1.0  0.0018868474913042621  0.007913736924299307  0.9995018068477665  1.0000
  W   W26       1.0  0.00259034317459694  0.0012018624993851818  0.9998071806181634  1.0000
  W   W27       1.0  0.0010535144302961403  0.004580403545401383  0.9992018241087705  1.0000
  W   W28       1.0  0.0069491560001838076  0.004576803183402261  0.9993364944591453  1.0000
  W   W29       1.0  0.007782488804783053  0.007910136562300184  0.9996364766544574  1.0000
  W   W30       1.0  0.008434214224167368  0.0011739230523677353  0.9999210966279475  1.0000
