data_image0
_chemical_formula_structural       HPd8V24
_chemical_formula_sum              "H1 Pd8 V24"
_cell_length_a       6.821765422821045
_cell_length_b       8.35492185765655
_cell_length_c       38.3687744140625
_cell_angle_alpha    84.94884721832327
_cell_angle_beta     90.0
_cell_angle_gamma    90.0

_space_group_name_H-M_alt    "P 1"
_space_group_IT_number       1

loop_
  _space_group_symop_operation_xyz
  'x, y, z'

loop_
  _atom_site_type_symbol
  _atom_site_label
  _atom_site_symmetry_multiplicity
  _atom_site_fract_x
  _atom_site_fract_y
  _atom_site_fract_z
  _atom_site_occupancy
  H   H1        1.0  0.009665446768163825  0.0016102659049654006  0.9999346824012052  1.0000
  Pd  Pd1       1.0  0.00033455361000273026  0.00523437530438028  0.9991876052761048  1.0000
  Pd  Pd2       1.0  0.00533455340658462  0.002109375035809445  0.9986723548933438  1.0000
  Pd  Pd3       1.0  0.00033455361000273026  0.008984375716188894  0.9981571050982416  1.0000
  Pd  Pd4       1.0  0.005350539066622425  0.008356643312319778  0.9997195829623767  1.0000
  Pd  Pd5       1.0  0.00033455361000273026  0.003984375017904723  0.9981571050028865  1.0000
  Pd  Pd6       1.0  0.005318457982680193  0.0033567569804496475  0.9997195441678908  1.0000
  Pd  Pd7       1.0  0.00033455361000273026  0.00023437501174997406  0.9991876051729724  1.0000
  Pd  Pd8       1.0  0.00533455340658462  0.007109375286475558  0.9986723549972807  1.0000
  V   V1        1.0  0.009231667612521748  0.007625422508476239  0.9995541811610378  1.0000
  V   V2        1.0  0.004084553483037064  0.004453125125333057  0.9990587925854684  1.0000
  V   V3        1.0  0.00908455345027173  0.0013281250805712507  0.9985435425867832  1.0000
  V   V4        1.0  0.0037110284101477403  0.0007420054335926453  0.9999857741993847  1.0000
  V   V5        1.0  0.00658498173686533  0.00602200359314833  0.9992906848311229  1.0000
  V   V6        1.0  0.0015845536359419526  0.002890624991047639  0.9988011675882712  1.0000
  V   V7        1.0  0.00658455360317662  0.009765625  0.9982859174176749  1.0000
  V   V8        1.0  0.001639677213585727  0.009494108837851168  0.9998522102286825  1.0000
  V   V9        1.0  0.002775830983025006  0.005961498612512932  0.999669546386886  1.0000
  V   V10       1.0  0.007834553799768619  0.0027343751790472235  0.9991876052241364  1.0000
  V   V11       1.0  0.002834553559489508  0.009609374964190556  0.9986723550578309  1.0000
  V   V12       1.0  0.007834553799768619  0.006484375143237779  0.998157105054855  1.0000
  V   V13       1.0  0.002834553559489508  0.007734375429713337  0.9991876053280734  1.0000
  V   V14       1.0  0.007834553799768619  0.004609375161142501  0.9986723549453123  1.0000
  V   V15       1.0  0.002834553559489508  0.0014843750044761807  0.9981571049487726  1.0000
  V   V16       1.0  0.007893283475388674  0.0009615756878664883  0.9996694593597335  1.0000
  V   V17       1.0  0.00902935696976132  0.004494058453962462  0.999852220018343  1.0000
  V   V18       1.0  0.004083832099615142  0.0010220611971163255  0.9992906575974104  1.0000
  V   V19       1.0  0.00908455345027173  0.007890625465522782  0.9988011676879173  1.0000
  V   V20       1.0  0.004084553483037064  0.004765625196951946  0.9982859173051561  1.0000
  V   V21       1.0  0.0014376090342918659  0.0026254300911261563  0.999554170421014  1.0000
  V   V22       1.0  0.00658455360317662  0.009453124928381112  0.999058792697987  1.0000
  V   V23       1.0  0.0015845536359419526  0.006328125107428335  0.998543542695011  1.0000
  V   V24       1.0  0.006957726175688312  0.0057420180497076345  0.9999856393029429  1.0000
