data_image0
_chemical_formula_structural       HIr12V12
_chemical_formula_sum              "H1 Ir12 V12"
_cell_length_a       6.654265199595614
_cell_length_b       6.654265149261875
_cell_length_c       36.14210891723633
_cell_angle_alpha    91.9645764032613
_cell_angle_beta     91.96457638839516
_cell_angle_gamma    64.00505225030399

_space_group_name_H-M_alt    "P 1"
_space_group_IT_number       1

loop_
  _space_group_symop_operation_xyz
  'x, y, z'

loop_
  _atom_site_type_symbol
  _atom_site_label
  _atom_site_symmetry_multiplicity
  _atom_site_fract_x
  _atom_site_fract_y
  _atom_site_fract_z
  _atom_site_occupancy
  H   H1        1.0  0.005706155082102619  0.0057061545435037496  0.0003609675142375843  1.0000
  Ir  Ir1       1.0  0.002825074299197211  0.008608860431577057  0.9997308521766586  1.0000
  Ir  Ir2       1.0  0.007933543030090338  0.003543809465127441  0.9981556397103382  1.0000
  Ir  Ir3       1.0  0.00543354307115869  0.0010438092688856428  0.9989363053223096  1.0000
  Ir  Ir4       1.0  0.00860886070264621  0.002825074813105043  0.9997308525939067  1.0000
  Ir  Ir5       1.0  0.003543806936920694  0.007933545679169764  0.9981556397111011  1.0000
  Ir  Ir6       1.0  0.0010438070120690024  0.005433545405054236  0.9989363053227961  1.0000
  Ir  Ir7       1.0  0.0010536223911301519  0.005443360609921602  0.9981587045010001  1.0000
  Ir  Ir8       1.0  0.008553622003182975  0.002943360958795911  0.9989393705301208  1.0000
  Ir  Ir9       1.0  0.005872780326672655  0.000609746902193008  0.9997374822242586  1.0000
  Ir  Ir10      1.0  0.005443358696221991  0.001053624551626739  0.9981587045025578  1.0000
  Ir  Ir11      1.0  0.0029433585856305285  0.008553624906730947  0.9989393705334685  1.0000
  Ir  Ir12      1.0  0.0006097488463128124  0.005872780651040128  0.9997374818262831  1.0000
  V   V1        1.0  0.002334162297191487  0.0023341655194184237  5.731355624813676e-05  1.0000
  V   V2        1.0  0.007150249519771409  0.007150251836414551  0.9985964265481644  1.0000
  V   V3        1.0  0.004667933454218079  0.004667932013846842  0.9993892277693079  1.0000
  V   V4        1.0  0.0017800370212878124  0.0017800394223482742  0.9984808218773565  1.0000
  V   V5        1.0  0.009280037000322624  0.009280039777452481  0.9992614875006621  1.0000
  V   V6        1.0  0.006707901396029908  0.006707901641248283  0.9999815510388939  1.0000
  V   V7        1.0  0.004580226453613674  0.0045802253242597304  5.7818216755237736e-05  1.0000
  V   V8        1.0  0.009336916652570307  0.009336918749486159  0.9984985832923358  1.0000
  V   V9        1.0  0.006836916727718614  0.00683691847537063  0.9992792493163244  1.0000
  V   V10       1.0  0.002133185325480521  0.002133184014381835  0.9993567163934849  1.0000
  V   V11       1.0  0.009390250977726647  0.009390253532342402  8.565400369578424e-05  1.0000
  V   V12       1.0  0.004707128550683357  0.004707130845827619  0.9986141879491031  1.0000
