data_image0
_chemical_formula_structural       HTi4Al8Ti4Al8Ti4Al8Ti4Al8
_chemical_formula_sum              "H1 Ti16 Al32"
_cell_length_a       12.877284963022891
_cell_length_b       7.911068439483643
_cell_length_c       102.22589111328125
_cell_angle_alpha    90.0
_cell_angle_beta     108.22909109668262
_cell_angle_gamma    90.0

_space_group_name_H-M_alt    "P 1"
_space_group_IT_number       1

loop_
  _space_group_symop_operation_xyz
  'x, y, z'

loop_
  _atom_site_type_symbol
  _atom_site_label
  _atom_site_symmetry_multiplicity
  _atom_site_fract_x
  _atom_site_fract_y
  _atom_site_fract_z
  _atom_site_occupancy
  H   H1        1.0  0.00015478020241425908  0.0024999996892086556  0.00028979846198363144  1.0000
  Ti  Ti1       1.0  0.0029943692890048623  0.009999999698626576  0.9999059985005941  1.0000
  Ti  Ti2       1.0  0.004829817342403999  0.002499999924656644  0.9999795603037684  1.0000
  Ti  Ti3       1.0  0.008052896170579199  0.002499999924656644  9.571678879870161e-05  1.0000
  Ti  Ti4       1.0  0.009711795376717201  0.009999999698626576  0.00016032346721277439  1.0000
  Al  Al1       1.0  0.0014053073758644244  0.002499999924656644  0.9998455676299217  1.0000
  Al  Al2       1.0  0.006405307138294122  0.002499999924656644  0.9998455678887715  1.0000
  Al  Al3       1.0  0.004683352205268382  0.009999999698626576  0.00015468215424664913  1.0000
  Al  Al4       1.0  0.0031382577020925523  0.002499999924656644  9.897496896549406e-05  1.0000
  Al  Al5       1.0  0.00646655398053403  0.009999999698626576  5.3699092072886135e-05  1.0000
  Al  Al6       1.0  0.0014670260083584979  0.0  5.780852078037111e-05  1.0000
  Al  Al7       1.0  0.009733441686183656  0.002499999924656644  0.9999758660685699  1.0000
  Al  Al8       1.0  0.008129855547119874  0.009999999698626576  0.9999082167667268  1.0000
  Ti  Ti5       1.0  0.0029653948494446575  0.0  0.9995129910453007  1.0000
  Ti  Ti6       1.0  0.004845219817002544  0.002499999924656644  0.999587066010626  1.0000
  Ti  Ti7       1.0  0.00796539476416301  0.002499999924656644  0.9997100172720512  1.0000
  Ti  Ti8       1.0  0.009845219731720896  0.0  0.9997840922373766  1.0000
  Al  Al9       1.0  0.0014053073758644244  0.002499999924656644  0.999451515414588  1.0000
  Al  Al10      1.0  0.006405307138294122  0.002499999924656644  0.9994515153819038  1.0000
  Al  Al11      1.0  0.004676104179007327  0.0  0.9997774282207385  1.0000
  Al  Al12      1.0  0.0031345104874398746  0.002499999924656644  0.9997166813420559  1.0000
  Al  Al13      1.0  0.006405307138294122  0.0  0.9996485416353377  1.0000
  Al  Al14      1.0  0.0014053073758644244  0.0  0.9996485416680219  1.0000
  Al  Al15      1.0  0.00967610439830299  0.002499999924656644  0.9995804019526233  1.0000
  Al  Al16      1.0  0.008134510706735537  0.0  0.9995196550739408  1.0000
  Ti  Ti9       1.0  0.0029943692890048623  0.004999999849313288  0.9999059985005941  1.0000
  Ti  Ti10      1.0  0.004829817342403999  0.0075000002448659085  0.9999795603037684  1.0000
  Ti  Ti11      1.0  0.008052896170579199  0.0075000002448659085  9.571678879870161e-05  1.0000
  Ti  Ti12      1.0  0.009711795376717201  0.004999999849313288  0.00016032346721277439  1.0000
  Al  Al17      1.0  0.0014053073758644244  0.0075000002448659085  0.9998455676299217  1.0000
  Al  Al18      1.0  0.006405307138294122  0.0075000002448659085  0.9998455678887715  1.0000
  Al  Al19      1.0  0.004683352205268382  0.004999999849313288  0.00015468215424664913  1.0000
  Al  Al20      1.0  0.0031382577020925523  0.007499999773969932  9.897496896549406e-05  1.0000
  Al  Al21      1.0  0.00646655398053403  0.004999999849313288  5.3699092072886135e-05  1.0000
  Al  Al22      1.0  0.0014670260083584979  0.004999999849313288  5.780852078037111e-05  1.0000
  Al  Al23      1.0  0.009733441686183656  0.0075000002448659085  0.9999758660685699  1.0000
  Al  Al24      1.0  0.008129855547119874  0.004999999849313288  0.9999082167667268  1.0000
  Ti  Ti13      1.0  0.0029653948494446575  0.004999999849313288  0.9995129910453007  1.0000
  Ti  Ti14      1.0  0.004845219817002544  0.0075000002448659085  0.999587066010626  1.0000
  Ti  Ti15      1.0  0.00796539476416301  0.0075000002448659085  0.9997100172720512  1.0000
  Ti  Ti16      1.0  0.009845219731720896  0.004999999849313288  0.9997840922373766  1.0000
  Al  Al25      1.0  0.0014053073758644244  0.0075000002448659085  0.999451515414588  1.0000
  Al  Al26      1.0  0.006405307138294122  0.0075000002448659085  0.9994515153819038  1.0000
  Al  Al27      1.0  0.004676104179007327  0.004999999849313288  0.9997774282207385  1.0000
  Al  Al28      1.0  0.0031345104874398746  0.0075000002448659085  0.9997166813420559  1.0000
  Al  Al29      1.0  0.006405307138294122  0.004999999849313288  0.9996485416353377  1.0000
  Al  Al30      1.0  0.0014053073758644244  0.004999999849313288  0.9996485416680219  1.0000
  Al  Al31      1.0  0.00967610439830299  0.0075000002448659085  0.9995804019526233  1.0000
  Al  Al32      1.0  0.008134510706735537  0.004999999849313288  0.9995196550739408  1.0000
