data_image0
_chemical_formula_structural       HSi12Rh12Si12Rh12
_chemical_formula_sum              "H1 Si24 Rh24"
_cell_length_a       5.640079233626008
_cell_length_b       10.349289866627265
_cell_length_c       109.22390747070312
_cell_angle_alpha    108.64918896042784
_cell_angle_beta     107.51635521605245
_cell_angle_gamma    67.65166336026014

_space_group_name_H-M_alt    "P 1"
_space_group_IT_number       1

loop_
  _space_group_symop_operation_xyz
  'x, y, z'

loop_
  _atom_site_type_symbol
  _atom_site_label
  _atom_site_symmetry_multiplicity
  _atom_site_fract_x
  _atom_site_fract_y
  _atom_site_fract_z
  _atom_site_occupancy
  H   H1        1.0  0.0014104454065192887  0.003243715196520962  0.0002214957015921689  1.0000
  Si  Si1       1.0  0.004391125461762822  0.0030989638211831047  0.9991756177147  1.0000
  Si  Si2       1.0  0.00439112521672501  0.009765630802660795  0.999375125745438  1.0000
  Si  Si3       1.0  0.004391125107591111  0.006432297111830198  0.9995746338234028  1.0000
  Si  Si4       1.0  0.0005509840698261265  0.0028496188847606744  0.9994898037450382  1.0000
  Si  Si5       1.0  0.0005509840564411214  0.009516286066330116  0.9990907875794454  1.0000
  Si  Si6       1.0  0.0005509839473072215  0.006182952375499519  0.9992902956574102  1.0000
  Si  Si7       1.0  0.005550983498007852  0.0035357813226253023  0.9995719406532894  1.0000
  Si  Si8       1.0  0.005550983692187251  0.00020244770682911292  0.9991729245322482  1.0000
  Si  Si9       1.0  0.005550983836455334  0.0068691146132723955  0.9993724325667631  1.0000
  Si  Si10      1.0  0.009391125350910934  0.0037851260589559814  0.9992577546240529  1.0000
  Si  Si11      1.0  0.009391125155784441  0.00045179251819419894  0.9994572629780836  1.0000
  Si  Si12      1.0  0.009391124996739223  0.0071184593496030745  0.999058246526762  1.0000
  Rh  Rh1       1.0  0.008783505496876466  0.004795480554180775  0.9990720352743134  1.0000
  Rh  Rh2       1.0  0.008783506023033363  0.0014621469633960538  0.9992715436380385  1.0000
  Rh  Rh3       1.0  0.008783505835323948  0.008128813844827868  0.9994710516666361  1.0000
  Rh  Rh4       1.0  0.006158603150446523  0.0011303609238366148  0.9995906640478569  1.0000
  Rh  Rh5       1.0  0.006158602790751921  0.0077970281054060555  0.9991916476040266  1.0000
  Rh  Rh6       1.0  0.0061586033742372145  0.00446369441457546  0.9993911556927559  1.0000
  Rh  Rh7       1.0  0.001158603404396199  0.0018392643895358814  0.9990769986078553  1.0000
  Rh  Rh8       1.0  0.001158603217856396  0.008505931571105322  0.9992765069184203  1.0000
  Rh  Rh9       1.0  0.0011586034550320923  0.005172597880274726  0.9994760150017675  1.0000
  Rh  Rh10      1.0  0.0037835059239809407  0.0055043840198800405  0.9991568945887072  1.0000
  Rh  Rh11      1.0  0.0037835060464998455  0.0021710505291411965  0.9993564026763351  1.0000
  Rh  Rh12      1.0  0.0037835062624284235  0.008837717310527134  0.9995559109810299  1.0000
  Si  Si13      1.0  0.004391125461762822  0.0030989638211831047  0.999774142193549  1.0000
  Si  Si14      1.0  0.004316906408885512  0.009797552640330076  0.9999695929431007  1.0000
  Si  Si15      1.0  0.0033669861520238655  0.006834064941343471  0.00015925132524001513  1.0000
  Si  Si16      1.0  0.0007160448047231995  0.0028105615751407085  9.62870606129682e-05  1.0000
  Si  Si17      1.0  0.0005509840564411214  0.009516286066330116  0.9996893120582944  1.0000
  Si  Si18      1.0  0.0005509839473072215  0.006182952375499519  0.9998888204091145  1.0000
  Si  Si19      1.0  0.005618797390267606  0.0034952007145010724  0.00015135990568544713  1.0000
  Si  Si20      1.0  0.005550983692187251  0.00020244770682911292  0.9997714490110972  1.0000
  Si  Si21      1.0  0.005657592292073589  0.006905384844885545  0.9999811239268099  1.0000
  Si  Si22      1.0  0.009391125350910934  0.0037851260589559814  0.9998562791029019  1.0000
  Si  Si23      1.0  0.009449015429255374  0.0004695308020345867  6.913586327387146e-05  1.0000
  Si  Si24      1.0  0.009391124996739223  0.0071184593496030745  0.9996567707327557  1.0000
  Rh  Rh13      1.0  0.008783505496876466  0.004795480554180775  0.9996705600260176  1.0000
  Rh  Rh14      1.0  0.008783506023033363  0.0014621469633960538  0.9998700678440322  1.0000
  Rh  Rh15      1.0  0.008857406773554012  0.008148090684168571  6.800395544871032e-05  1.0000
  Rh  Rh16      1.0  0.005779812508843499  0.0012545152544572887  0.00017172166816591816  1.0000
  Rh  Rh17      1.0  0.006158602790751921  0.0077970281054060555  0.9997901723557309  1.0000
  Rh  Rh18      1.0  0.00617033296162118  0.004513777379979013  0.9999947862817675  1.0000
  Rh  Rh19      1.0  0.001158603404396199  0.0018392643895358814  0.9996755233595596  1.0000
  Rh  Rh20      1.0  0.001158603217856396  0.008505931571105322  0.999875031124414  1.0000
  Rh  Rh21      1.0  0.0011574886373336972  0.005085525153319584  7.137038672585295e-05  1.0000
  Rh  Rh22      1.0  0.0037835059239809407  0.0055043840198800405  0.9997554187947009  1.0000
  Rh  Rh23      1.0  0.003695781003062567  0.0021830246198269528  0.9999417839484585  1.0000
  Rh  Rh24      1.0  0.0037864545637239684  0.008941587339838238  0.00014536745855237774  1.0000
