data_image0
_chemical_formula_structural       In6Pd4In6Pd4CO
_chemical_formula_sum              "In12 Pd8 C1 O1"
_cell_length_a       4.664609605721102
_cell_length_b       12.190405432951795
_cell_length_c       32.68312454223633
_cell_angle_alpha    67.50232366918323
_cell_angle_beta     60.00000123040415
_cell_angle_gamma    78.96999844492585

_space_group_name_H-M_alt    "P 1"
_space_group_IT_number       1

loop_
  _space_group_symop_operation_xyz
  'x, y, z'

loop_
  _atom_site_type_symbol
  _atom_site_label
  _atom_site_symmetry_multiplicity
  _atom_site_fract_x
  _atom_site_fract_y
  _atom_site_fract_z
  _atom_site_occupancy
  In  In1       1.0  4.634475048480309e-05  0.0003641096918727111  0.9977833844752559  1.0000
  In  In2       1.0  0.009953655231359841  0.0053415279218442385  0.9985273409675645  1.0000
  In  In3       1.0  0.0065310542144924755  0.0035914267078049917  0.9983256750224012  1.0000
  In  In4       1.0  0.006507689021451514  0.008801086628633121  0.9990173354061948  1.0000
  In  In5       1.0  0.0033796780681603434  0.0021503934778466945  0.9980041827945134  1.0000
  In  In6       1.0  0.0031749638145209466  0.0071928233292406695  0.998770636659815  1.0000
  Pd  Pd1       1.0  0.006979654485886888  0.0012142386157359384  0.998537850286635  1.0000
  Pd  Pd2       1.0  0.006713011220132244  0.006092329034272529  0.9979173220868501  1.0000
  Pd  Pd3       1.0  0.003527850666425435  0.004829154009399013  0.9990083243184161  1.0000
  Pd  Pd4       1.0  0.0033029248337839066  0.009631703941658375  0.9983860377844183  1.0000
  In  In7       1.0  4.634475048480309e-05  0.0003641096918727111  0.9963561618193547  1.0000
  In  In8       1.0  4.634475048480309e-05  0.005364109898600733  0.9970697731405971  1.0000
  In  In9       1.0  0.006713011220132244  0.0035778259885899362  0.9968489747630335  1.0000
  In  In10      1.0  0.006713011220132244  0.00857782631935477  0.9975625862945372  1.0000
  In  In11      1.0  0.0033796780681603434  0.0021503934778466945  0.9965769603665764  1.0000
  In  In12      1.0  0.0033796780681603434  0.007150393477846694  0.9972905714893593  1.0000
  Pd  Pd5       1.0  0.006713011220132244  0.0010923291169637375  0.997203710496337  1.0000
  Pd  Pd6       1.0  0.006713011220132244  0.006092329034272529  0.9964900992029847  1.0000
  Pd  Pd7       1.0  0.0033796780681603434  0.0046358904321641015  0.9976494470494081  1.0000
  Pd  Pd8       1.0  0.0033796780681603434  0.009635890762928936  0.9969358356970464  1.0000
  C   C1        1.0  0.001979654642656941  0.0012142386157359384  0.9991497870179866  1.0000
  O   O1        1.0  0.001979654642656941  0.0012142386157359384  0.9995169488081902  1.0000
