data_image0
_chemical_formula_structural       HAl6Fe6Rh12
_chemical_formula_sum              "H1 Al6 Fe6 Rh12"
_cell_length_a       7.328419275875595
_cell_length_b       5.98362922668457
_cell_length_c       102.22283172607422
_cell_angle_alpha    90.0
_cell_angle_beta     85.65224699526819
_cell_angle_gamma    114.0948423137058

_space_group_name_H-M_alt    "P 1"
_space_group_IT_number       1

loop_
  _space_group_symop_operation_xyz
  'x, y, z'

loop_
  _atom_site_type_symbol
  _atom_site_label
  _atom_site_symmetry_multiplicity
  _atom_site_fract_x
  _atom_site_fract_y
  _atom_site_fract_z
  _atom_site_occupancy
  H   H1        1.0  0.0027703564627000812  0.0015935116891994546  7.771008234531146e-05  1.0000
  Al  Al1       1.0  0.003541666439428244  0.0019791665608297104  0.9995187892978749  1.0000
  Al  Al2       1.0  0.005208333147072331  0.007812499906869499  0.9997814740976805  1.0000
  Al  Al3       1.0  0.0018750000111756602  0.0061458333389211636  0.9992561047880936  1.0000
  Al  Al4       1.0  0.009374999776486797  0.004895833229358987  0.9996501318407247  1.0000
  Al  Al5       1.0  0.0010416665875057408  0.0007291666348684588  0.9999128163542567  1.0000
  Al  Al6       1.0  0.0077083333482342135  0.00906250000745044  0.9993874470394007  1.0000
  Fe  Fe1       1.0  0.003541666439428244  0.006979166553047455  0.9995187892978749  1.0000
  Fe  Fe2       1.0  0.005208333147072331  0.0028124999730186674  0.9997814740976805  1.0000
  Fe  Fe3       1.0  0.0018750000111756602  0.0011458333467034185  0.9992561047880936  1.0000
  Fe  Fe4       1.0  0.009374999776486797  0.009895833221576732  0.9996501318407247  1.0000
  Fe  Fe5       1.0  0.0010416665875057408  0.005729166627086203  0.9999128163542567  1.0000
  Fe  Fe6       1.0  0.0077083333482342135  0.004062500073599608  0.9993874470394007  1.0000
  Rh  Rh1       1.0  0.004791666540009185  0.00010416663446694622  0.999321775768735  1.0000
  Rh  Rh2       1.0  0.006458332968261769  0.005937499879722258  0.999584460570059  1.0000
  Rh  Rh3       1.0  0.00812499995529736  0.0017708333421110334  0.9998471447852608  1.0000
  Rh  Rh4       1.0  0.003958333325882893  0.009687500245306941  0.9999784870422166  1.0000
  Rh  Rh5       1.0  0.0006249999804425947  0.008020833572586792  0.9994531180253111  1.0000
  Rh  Rh6       1.0  0.002291666618238806  0.0038541667047107767  0.9997158028254963  1.0000
  Rh  Rh7       1.0  0.003958333325882893  0.004687500058532821  0.9999784870422166  1.0000
  Rh  Rh8       1.0  0.0006249999804425947  0.003020833385812671  0.9994531180253111  1.0000
  Rh  Rh9       1.0  0.002291666618238806  0.008854166891484898  0.9997158028254963  1.0000
  Rh  Rh10      1.0  0.004791666540009185  0.005104166665595966  0.999321775768735  1.0000
  Rh  Rh11      1.0  0.006458332968261769  0.0009374998485932382  0.999584460570059  1.0000
  Rh  Rh12      1.0  0.00812499995529736  0.006770833373240054  0.9998471447852608  1.0000
