data_image0
_chemical_formula_structural       COIn3Ag9In3Ag9In3Ag9In3Ag9
_chemical_formula_sum              "C1 O1 In12 Ag36"
_cell_length_a       9.611982998375897
_cell_length_b       8.597219467163086
_cell_length_c       106.47491455078125
_cell_angle_alpha    90.0
_cell_angle_beta     108.43494972175651
_cell_angle_gamma    90.0

_space_group_name_H-M_alt    "P 1"
_space_group_IT_number       1

loop_
  _space_group_symop_operation_xyz
  'x, y, z'

loop_
  _atom_site_type_symbol
  _atom_site_label
  _atom_site_symmetry_multiplicity
  _atom_site_fract_x
  _atom_site_fract_y
  _atom_site_fract_z
  _atom_site_occupancy
  C   C1        1.0  0.005600656913262828  0.004999999722679432  0.00024284006661851032  1.0000
  O   O1        1.0  0.005600656913262828  0.004999999722679432  0.0003555423379908638  1.0000
  In  In1       1.0  0.009166666917232842  0.001249999930669858  0.9998334734733252  1.0000
  In  In2       1.0  0.005833333752759322  0.001249999930669858  2.3789532800322852e-05  1.0000
  In  In3       1.0  0.002500000179753995  0.001249999930669858  0.999643157842097  1.0000
  Ag  Ag1       1.0  0.007500000130730179  0.0037499997920095733  0.9999286317771314  1.0000
  Ag  Ag2       1.0  0.004166666966256658  0.0037499997920095733  0.00011894727680669212  1.0000
  Ag  Ag3       1.0  0.0008333333932513318  0.0037499997920095733  0.9997383161459032  1.0000
  Ag  Ag4       1.0  0.009166666917232842  0.001249999930669858  0.00011894734258317838  1.0000
  Ag  Ag5       1.0  0.005833333752759322  0.001249999930669858  0.9997383156635423  1.0000
  Ag  Ag6       1.0  0.002500000179753995  0.001249999930669858  0.9999286317113549  1.0000
  Ag  Ag7       1.0  0.0008333333932513318  0.0037499997920095733  2.3789455361338424e-05  1.0000
  Ag  Ag8       1.0  0.007500000130730179  0.0037499997920095733  0.9996431579078735  1.0000
  Ag  Ag9       1.0  0.004166666966256658  0.0037499997920095733  0.9998334739673486  1.0000
  In  In4       1.0  0.009166666917232842  0.001249999930669858  0.999262526854409  1.0000
  In  In5       1.0  0.005833333752759322  0.001249999930669858  0.9994528423540843  1.0000
  In  In6       1.0  0.002500000179753995  0.001249999930669858  0.9990722112231808  1.0000
  Ag  Ag10      1.0  0.007500000130730179  0.0037499997920095733  0.9993576845984153  1.0000
  Ag  Ag11      1.0  0.004166666966256658  0.0037499997920095733  0.9995480000980906  1.0000
  Ag  Ag12      1.0  0.0008333333932513318  0.0037499997920095733  0.9991673689671872  1.0000
  Ag  Ag13      1.0  0.009166666917232842  0.001249999930669858  0.9995480001638671  1.0000
  Ag  Ag14      1.0  0.005833333752759322  0.001249999930669858  0.9991673690446261  1.0000
  Ag  Ag15      1.0  0.002500000179753995  0.001249999930669858  0.9993576845326388  1.0000
  Ag  Ag16      1.0  0.0008333333932513318  0.0037499997920095733  0.9994528422766453  1.0000
  Ag  Ag17      1.0  0.007500000130730179  0.0037499997920095733  0.9990722112889573  1.0000
  Ag  Ag18      1.0  0.004166666966256658  0.0037499997920095733  0.9992625267886325  1.0000
  In  In7       1.0  0.009166666917232842  0.006250000086662677  0.9998334734733252  1.0000
  In  In8       1.0  0.005833333752759322  0.006250000086662677  2.3789532800322852e-05  1.0000
  In  In9       1.0  0.002500000179753995  0.006250000086662677  0.999643157842097  1.0000
  Ag  Ag19      1.0  0.007500000130730179  0.008749999514689005  0.9999286317771314  1.0000
  Ag  Ag20      1.0  0.004166666966256658  0.008749999514689005  0.00011894727680669212  1.0000
  Ag  Ag21      1.0  0.0008333333932513318  0.008749999514689005  0.9997383161459032  1.0000
  Ag  Ag22      1.0  0.009166666917232842  0.006250000086662677  0.00011894734258317838  1.0000
  Ag  Ag23      1.0  0.005833333752759322  0.006250000086662677  0.9997383156635423  1.0000
  Ag  Ag24      1.0  0.002500000179753995  0.006250000086662677  0.9999286317113549  1.0000
  Ag  Ag25      1.0  0.0008333333932513318  0.008749999514689005  2.3789455361338424e-05  1.0000
  Ag  Ag26      1.0  0.007500000130730179  0.008749999514689005  0.9996431579078735  1.0000
  Ag  Ag27      1.0  0.004166666966256658  0.008749999514689005  0.9998334739673486  1.0000
  In  In10      1.0  0.009166666917232842  0.006250000086662677  0.999262526854409  1.0000
  In  In11      1.0  0.005833333752759322  0.006250000086662677  0.9994528423540843  1.0000
  In  In12      1.0  0.002500000179753995  0.006250000086662677  0.9990722112231808  1.0000
  Ag  Ag28      1.0  0.007500000130730179  0.008749999514689005  0.9993576845984153  1.0000
  Ag  Ag29      1.0  0.004166666966256658  0.008749999514689005  0.9995480000980906  1.0000
  Ag  Ag30      1.0  0.0008333333932513318  0.008749999514689005  0.9991673689671872  1.0000
  Ag  Ag31      1.0  0.009166666917232842  0.006250000086662677  0.9995480001638671  1.0000
  Ag  Ag32      1.0  0.005833333752759322  0.006250000086662677  0.9991673690446261  1.0000
  Ag  Ag33      1.0  0.002500000179753995  0.006250000086662677  0.9993576845326388  1.0000
  Ag  Ag34      1.0  0.0008333333932513318  0.008749999514689005  0.9994528422766453  1.0000
  Ag  Ag35      1.0  0.007500000130730179  0.008749999514689005  0.9990722112889573  1.0000
  Ag  Ag36      1.0  0.004166666966256658  0.008749999514689005  0.9992625267886325  1.0000
