data_image0
_chemical_formula_structural       HGa6Sb6Ga6Sb6
_chemical_formula_sum              "H1 Ga12 Sb12"
_cell_length_a       7.293602466583252
_cell_length_b       11.738147768146117
_cell_length_c       101.05622100830078
_cell_angle_alpha    79.10660595437422
_cell_angle_beta     90.0
_cell_angle_gamma    90.0

_space_group_name_H-M_alt    "P 1"
_space_group_IT_number       1

loop_
  _space_group_symop_operation_xyz
  'x, y, z'

loop_
  _atom_site_type_symbol
  _atom_site_label
  _atom_site_symmetry_multiplicity
  _atom_site_fract_x
  _atom_site_fract_y
  _atom_site_fract_z
  _atom_site_occupancy
  H   H1        1.0  0.005290239365164003  0.006047149258886945  0.999950508912826  1.0000
  Ga  Ga1       1.0  0.004983735560490391  0.007708437400457534  0.999154796650379  1.0000
  Ga  Ga2       1.0  0.004983735560490391  0.004375104390314027  0.9994474786612784  1.0000
  Ga  Ga3       1.0  0.004983735560490391  0.0010417711377781501  0.9993011377094896  1.0000
  Ga  Ga4       1.0  0.009983734784133126  0.005486215178235311  0.9992035770063719  1.0000
  Ga  Ga5       1.0  0.009983734784133126  0.0021528821680918044  0.9994962590172711  1.0000
  Ga  Ga6       1.0  0.009983734784133126  0.008819548511568645  0.9993499179563871  1.0000
  Sb  Sb1       1.0  0.0012372785281547676  0.007708437400457534  0.999154796650379  1.0000
  Sb  Sb2       1.0  0.0012372785281547676  0.004375104390314027  0.9994474786612784  1.0000
  Sb  Sb3       1.0  0.0012372785281547676  0.0010417711377781501  0.9993011377094896  1.0000
  Sb  Sb4       1.0  0.0062372782625588616  0.005486215178235311  0.9992035770063719  1.0000
  Sb  Sb5       1.0  0.0062372782625588616  0.0021528821680918044  0.9994962590172711  1.0000
  Sb  Sb6       1.0  0.0062372782625588616  0.008819548511568645  0.9993499179563871  1.0000
  Ga  Ga7       1.0  0.004983735560490391  0.007708437400457534  0.9995938196183879  1.0000
  Ga  Ga8       1.0  0.004559647340611892  0.004006437230330408  0.9998408985702553  1.0000
  Ga  Ga9       1.0  0.005091193110255872  0.0009334702268482321  0.9997453402271907  1.0000
  Ga  Ga10      1.0  1.6264449245997328e-05  0.005470427355200615  0.9996516563583279  1.0000
  Ga  Ga11      1.0  0.009561528209096448  0.0025100271259685353  0.9998747716095661  1.0000
  Ga  Ga12      1.0  0.009482591062784387  0.009066529530759398  0.9997391545734367  1.0000
  Sb  Sb7       1.0  0.0012372785281547676  0.007708437400457534  0.9995938196183879  1.0000
  Sb  Sb8       1.0  0.001129804761716179  0.004492505357194567  0.999905593816865  1.0000
  Sb  Sb9       1.0  0.0013001924522236276  0.0010462888467707907  0.9997438734937479  1.0000
  Sb  Sb10      1.0  0.006255106898511244  0.005484024597589883  0.999642835032055  1.0000
  Sb  Sb11      1.0  0.006114286927621209  0.001996917544708788  0.999952939635653  1.0000
  Sb  Sb12      1.0  0.00602083190047747  0.008655810203283815  0.9998099949235948  1.0000
