data_image0
_chemical_formula_structural       COCo10Sb20
_chemical_formula_sum              "C1 O1 Co10 Sb20"
_cell_length_a       8.884034188084263
_cell_length_b       9.415460801770559
_cell_length_c       107.01004791259766
_cell_angle_alpha    77.81163195507104
_cell_angle_beta     83.94702433119295
_cell_angle_gamma    55.94719734310736

_space_group_name_H-M_alt    "P 1"
_space_group_IT_number       1

loop_
  _space_group_symop_operation_xyz
  'x, y, z'

loop_
  _atom_site_type_symbol
  _atom_site_label
  _atom_site_symmetry_multiplicity
  _atom_site_fract_x
  _atom_site_fract_y
  _atom_site_fract_z
  _atom_site_occupancy
  C   C1        1.0  0.0016639391589615003  0.009460352833199482  0.9999490674890691  1.0000
  O   O1        1.0  0.0016639391589615003  0.009460352833199482  6.120671854125582e-05  1.0000
  Co  Co1       1.0  0.008037880180476818  0.00833158171559706  0.9991230577163946  1.0000
  Co  Co2       1.0  0.006037880294932147  0.0063315816106438196  0.9992959858280659  1.0000
  Co  Co3       1.0  0.004037879987712387  0.004331581505690581  0.9994689139434287  1.0000
  Co  Co4       1.0  0.00996211946648825  0.000563565368671343  0.9997884978006171  1.0000
  Co  Co5       1.0  0.00200915241668889  0.0022901661722306605  0.9996512702542281  1.0000
  Co  Co6       1.0  0.008037880180476818  0.00833158171559706  0.9995553775141833  1.0000
  Co  Co7       1.0  0.00598817917254182  0.006495878618453398  0.999719005803009  1.0000
  Co  Co8       1.0  0.004296061813771712  0.0038928852253453335  0.9998819397820242  1.0000
  Co  Co9       1.0  3.7880050266227544e-05  0.00033158153873141485  0.9993824498089254  1.0000
  Co  Co10      1.0  0.0020378801021677137  0.002331581400737341  0.9992095217003109  1.0000
  Sb  Sb1       1.0  0.007816834412972826  0.00966841874308747  0.9993160092551899  1.0000
  Sb  Sb2       1.0  0.005816834807432393  0.007668418152239603  0.9994889373734361  1.0000
  Sb  Sb3       1.0  0.003888018702359616  0.005576930405709109  0.9996677130862784  1.0000
  Sb  Sb4       1.0  0.00981683419358095  0.001668418444748168  0.9991430818314696  1.0000
  Sb  Sb5       1.0  0.0019033102045976612  0.00355202455692785  0.9998441827672624  1.0000
  Sb  Sb6       1.0  0.00024817372852943613  0.008966874363167067  0.999622824710781  1.0000
  Sb  Sb7       1.0  0.008169568454980805  0.00707318314358928  0.9997970871000412  1.0000
  Sb  Sb8       1.0  0.006258925219085966  0.00499474458315341  0.9991030342966536  1.0000
  Sb  Sb9       1.0  0.002258925518832044  0.0009947446161942444  0.9994488899578625  1.0000
  Sb  Sb10      1.0  0.004258925193539173  0.002994744721147484  0.9992759624050374  1.0000
  Sb  Sb11      1.0  0.0006715708206016808  0.005386314429549757  0.9995014974191084  1.0000
  Sb  Sb12      1.0  0.008571189538465753  0.003555424361630862  0.9996761501514807  1.0000
  Sb  Sb13      1.0  0.006966688227499557  0.0010027306588050108  0.9998510130843891  1.0000
  Sb  Sb14      1.0  0.002671570706146354  0.007386314534502997  0.9993285693074371  1.0000
  Sb  Sb15      1.0  0.004671570450020181  0.00938631415356161  0.9991556417630326  1.0000
  Sb  Sb16      1.0  0.00540418919927736  0.0012768485983518207  0.9996092580207762  1.0000
  Sb  Sb17      1.0  0.0032915171320859293  0.00919114680243397  0.999778413483598  1.0000
  Sb  Sb18      1.0  0.0014041898131288042  0.007276848305843256  0.9990904742456655  1.0000
  Sb  Sb19      1.0  0.007404189576498179  0.0032768485818314035  0.9994363299070571  1.0000
  Sb  Sb20      1.0  0.009404189462042854  0.005276848686784643  0.9992634023523862  1.0000
