data_image0
_chemical_formula_structural       HCu9Si3Cu9Si3
_chemical_formula_sum              "H1 Cu18 Si6"
_cell_length_a       7.303277015686035
_cell_length_b       4.5355729127432065
_cell_length_c       37.199501037597656
_cell_angle_alpha    89.1222859778608
_cell_angle_beta     90.0
_cell_angle_gamma    113.73802479759105

_space_group_name_H-M_alt    "P 1"
_space_group_IT_number       1

loop_
  _space_group_symop_operation_xyz
  'x, y, z'

loop_
  _atom_site_type_symbol
  _atom_site_label
  _atom_site_symmetry_multiplicity
  _atom_site_fract_x
  _atom_site_fract_y
  _atom_site_fract_z
  _atom_site_occupancy
  H   H1        1.0  0.00031215298079906013  0.0012498093231338822  0.00015276646047221795  1.0000
  Cu  Cu1       1.0  0.0028231567598093325  0.001295385047127338  0.9998143731744893  1.0000
  Cu  Cu2       1.0  0.0007383208074791262  0.002955137629858412  0.9993582149871187  1.0000
  Cu  Cu3       1.0  0.0013170464107451272  0.005268851042945025  0.9999901593366022  1.0000
  Cu  Cu4       1.0  0.0037499998955274044  0.005000000071790989  0.9989456951143428  1.0000
  Cu  Cu5       1.0  0.001749999912953425  0.006999999651813704  0.9985048222681592  1.0000
  Cu  Cu6       1.0  0.0022500000323059438  0.00900000012922378  0.9991661317960899  1.0000
  Cu  Cu7       1.0  0.004749999909885603  0.00900000012922378  0.9980639494202995  1.0000
  Cu  Cu8       1.0  0.002749999881169207  0.0010000000143581978  0.9976230768579537  1.0000
  Cu  Cu9       1.0  0.003249999888348306  0.0030000000430745934  0.9982843859861483  1.0000
  Si  Si1       1.0  0.004342169904873183  0.007370409296508041  0.999652841927078  1.0000
  Si  Si2       1.0  0.0002500000035895489  0.0010000000143581978  0.99872525883317  1.0000
  Si  Si3       1.0  0.0012500000179477464  0.005000000071790989  0.9978435131391266  1.0000
  Cu  Cu10      1.0  0.007823156770011027  0.001295385047127338  0.9998143731744893  1.0000
  Cu  Cu11      1.0  0.005738320495577738  0.002955137629858412  0.9993582149871187  1.0000
  Cu  Cu12      1.0  0.006317046228264048  0.005268851042945025  0.9999901593366022  1.0000
  Cu  Cu13      1.0  0.008749999650686721  0.005000000071790989  0.9989456951143428  1.0000
  Cu  Cu14      1.0  0.006749999668112741  0.006999999651813704  0.9985048222681592  1.0000
  Cu  Cu15      1.0  0.0072499997874652606  0.00900000012922378  0.9991661317960899  1.0000
  Cu  Cu16      1.0  0.009749999665044917  0.00900000012922378  0.9980639494202995  1.0000
  Cu  Cu17      1.0  0.007749999636328522  0.0010000000143581978  0.9976230768579537  1.0000
  Cu  Cu18      1.0  0.008249999643507621  0.0030000000430745934  0.9982843859861483  1.0000
  Si  Si4       1.0  0.009342169915074878  0.007370409296508041  0.999652841927078  1.0000
  Si  Si5       1.0  0.005249999758748864  0.0010000000143581978  0.99872525883317  1.0000
  Si  Si6       1.0  0.006249999773107062  0.005000000071790989  0.9978435131391266  1.0000
