data_image0
_chemical_formula_structural       COCa4Ge8Ni8
_chemical_formula_sum              "C1 O1 Ca4 Ge8 Ni8"
_cell_length_a       5.852446556091309
_cell_length_b       5.852446530548862
_cell_length_c       105.16974639892578
_cell_angle_alpha    90.0
_cell_angle_beta     90.0
_cell_angle_gamma    119.89621820742346

_space_group_name_H-M_alt    "P 1"
_space_group_IT_number       1

loop_
  _space_group_symop_operation_xyz
  'x, y, z'

loop_
  _atom_site_type_symbol
  _atom_site_label
  _atom_site_symmetry_multiplicity
  _atom_site_fract_x
  _atom_site_fract_y
  _atom_site_fract_z
  _atom_site_occupancy
  C   C1        1.0  0.0018705670718288422  0.008129401482908976  0.00016415658624649787  1.0000
  O   O1        1.0  0.0018705670718288422  0.008129401482908976  0.00027825750523638015  1.0000
  Ca  Ca1       1.0  0.005000001265031102  0.005000001541906734  0.9991659347846241  1.0000
  Ca  Ca2       1.0  1.0000000571203997e-09  1.3000000929818197e-09  0.9994446094156981  1.0000
  Ca  Ca3       1.0  0.0050000112028829  0.005000002643268687  0.999718515436993  1.0000
  Ca  Ca4       1.0  2.500000081634106e-09  2.5000000576180444e-09  0.9999989316817882  1.0000
  Ge  Ge1       1.0  0.0013153662960875352  0.008684636223964978  0.9991659347846241  1.0000
  Ge  Ge2       1.0  0.006315366335874974  0.003684636150540848  0.9994446094156981  1.0000
  Ge  Ge3       1.0  0.0036846359316361488  0.006315366566151969  0.9994446094156981  1.0000
  Ge  Ge4       1.0  0.00868463577846879  0.001315366584508002  0.9991659347846241  1.0000
  Ge  Ge5       1.0  0.0013448718545705741  0.008655417091351836  0.9997249995901285  1.0000
  Ge  Ge6       1.0  0.006258867073323821  0.0037412043031709355  0.0  1.0000
  Ge  Ge7       1.0  0.0037411313510245675  0.006258799882004486  0.9999999994332529  1.0000
  Ge  Ge8       1.0  0.00865513209948207  0.0013445907650300956  0.9997250001568756  1.0000
  Ni  Ni1       1.0  1.13772399125561e-09  0.005000001541906734  0.9990265974690872  1.0000
  Ni  Ni2       1.0  0.005000001093534606  1.3000000929818197e-09  0.9993052721001612  1.0000
  Ni  Ni3       1.0  0.005000001093534606  1.3000000929818197e-09  0.9990265974690872  1.0000
  Ni  Ni4       1.0  1.13772399125561e-09  0.005000001541906734  0.9993052721001612  1.0000
  Ni  Ni5       1.0  1.13772399125561e-09  0.005000001541906734  0.9995839464478615  1.0000
  Ni  Ni6       1.0  0.004999998484281454  0.009999999412606958  0.9998677144347811  1.0000
  Ni  Ni7       1.0  0.005000001093534606  1.3000000929818197e-09  0.9995839464478615  1.0000
  Ni  Ni8       1.0  0.009999999705598341  0.00500000007342413  0.9998677252029753  1.0000
