data_image0
_chemical_formula_structural       HIn3Pd9In3Pd9In3Pd9In3Pd9
_chemical_formula_sum              "H1 In12 Pd36"
_cell_length_a       9.145001687412526
_cell_length_b       8.227237701416016
_cell_length_c       104.39704132080078
_cell_angle_alpha    90.0
_cell_angle_beta     70.03594879973747
_cell_angle_gamma    90.0

_space_group_name_H-M_alt    "P 1"
_space_group_IT_number       1

loop_
  _space_group_symop_operation_xyz
  'x, y, z'

loop_
  _atom_site_type_symbol
  _atom_site_label
  _atom_site_symmetry_multiplicity
  _atom_site_fract_x
  _atom_site_fract_y
  _atom_site_fract_z
  _atom_site_occupancy
  H   H1        1.0  0.005145323974418461  0.002916666793450567  0.9998544599453164  1.0000
  In  In1       1.0  0.009166666181255842  0.0012500000543359572  0.9997258367017772  1.0000
  In  In2       1.0  0.002499999887315344  0.0012500000543359572  0.9993597444986956  1.0000
  In  In3       1.0  0.005833333142636224  0.0012500000543359572  0.9995427905969958  1.0000
  Pd  Pd1       1.0  0.007499999445244771  0.003750000163007872  0.9996343136558677  1.0000
  Pd  Pd2       1.0  0.0008333333138302199  0.003750000163007872  0.9998173596444753  1.0000
  Pd  Pd3       1.0  0.004166666406625153  0.003750000163007872  0.9994512675510864  1.0000
  Pd  Pd4       1.0  0.009166666181255842  0.0012500000543359572  0.9994512673180312  1.0000
  Pd  Pd5       1.0  0.002499999887315344  0.0012500000543359572  0.9996343133114997  1.0000
  Pd  Pd6       1.0  0.005833333142636224  0.0012500000543359572  0.9998173594097999  1.0000
  Pd  Pd7       1.0  0.0008333333138302199  0.003750000163007872  0.9995427902607293  1.0000
  Pd  Pd8       1.0  0.004166666406625153  0.003750000163007872  0.9997258363638903  1.0000
  Pd  Pd9       1.0  0.007499999445244771  0.003750000163007872  0.9993597442721218  1.0000
  In  In4       1.0  0.009166666181255842  0.0012500000543359572  0.9991766979342853  1.0000
  In  In5       1.0  0.002499999887315344  0.0012500000543359572  0.9988106060166746  1.0000
  In  In6       1.0  0.005833333142636224  0.0012500000543359572  0.9989936518295038  1.0000
  Pd  Pd10      1.0  0.007499999445244771  0.003750000163007872  0.9990851748883758  1.0000
  Pd  Pd11      1.0  0.0008333333138302199  0.003750000163007872  0.9992682214479253  1.0000
  Pd  Pd12      1.0  0.004166666406625153  0.003750000163007872  0.9989021290690654  1.0000
  Pd  Pd13      1.0  0.009166666181255842  0.0012500000543359572  0.9989021291214812  1.0000
  Pd  Pd14      1.0  0.002499999887315344  0.0012500000543359572  0.9990851751149497  1.0000
  Pd  Pd15      1.0  0.005833333142636224  0.0012500000543359572  0.9992682212132499  1.0000
  Pd  Pd16      1.0  0.0008333333138302199  0.003750000163007872  0.9989936520641792  1.0000
  Pd  Pd17      1.0  0.004166666406625153  0.003750000163007872  0.9991766981673403  1.0000
  Pd  Pd18      1.0  0.007499999445244771  0.003750000163007872  0.9988106060755718  1.0000
  In  In7       1.0  0.009166666181255842  0.006250000271679787  0.9997258367017772  1.0000
  In  In8       1.0  0.002499999887315344  0.006250000271679787  0.9993597444986956  1.0000
  In  In9       1.0  0.005833333142636224  0.006250000271679787  0.9995427905969958  1.0000
  Pd  Pd19      1.0  0.007499999445244771  0.008750000833151344  0.9996343136558677  1.0000
  Pd  Pd20      1.0  0.0008333333138302199  0.008750000833151344  0.9998173596444753  1.0000
  Pd  Pd21      1.0  0.004166666406625153  0.008750000833151344  0.9994512675510864  1.0000
  Pd  Pd22      1.0  0.009166666181255842  0.006250000271679787  0.9994512673180312  1.0000
  Pd  Pd23      1.0  0.002499999887315344  0.006250000271679787  0.9996343133114997  1.0000
  Pd  Pd24      1.0  0.005833333142636224  0.006250000271679787  0.9998173594097999  1.0000
  Pd  Pd25      1.0  0.0008333333138302199  0.008750000833151344  0.9995427902607293  1.0000
  Pd  Pd26      1.0  0.004166666406625153  0.008750000833151344  0.9997258363638903  1.0000
  Pd  Pd27      1.0  0.007499999445244771  0.008750000833151344  0.9993597442721218  1.0000
  In  In10      1.0  0.009166666181255842  0.006250000271679787  0.9991766979342853  1.0000
  In  In11      1.0  0.002499999887315344  0.006250000271679787  0.9988106060166746  1.0000
  In  In12      1.0  0.005833333142636224  0.006250000271679787  0.9989936518295038  1.0000
  Pd  Pd28      1.0  0.007499999445244771  0.008750000833151344  0.9990851748883758  1.0000
  Pd  Pd29      1.0  0.0008333333138302199  0.008750000833151344  0.9992682214479253  1.0000
  Pd  Pd30      1.0  0.004166666406625153  0.008750000833151344  0.9989021290690654  1.0000
  Pd  Pd31      1.0  0.009166666181255842  0.006250000271679787  0.9989021291214812  1.0000
  Pd  Pd32      1.0  0.002499999887315344  0.006250000271679787  0.9990851751149497  1.0000
  Pd  Pd33      1.0  0.005833333142636224  0.006250000271679787  0.9992682212132499  1.0000
  Pd  Pd34      1.0  0.0008333333138302199  0.008750000833151344  0.9989936520641792  1.0000
  Pd  Pd35      1.0  0.004166666406625153  0.008750000833151344  0.9991766981673403  1.0000
  Pd  Pd36      1.0  0.007499999445244771  0.008750000833151344  0.9988106060755718  1.0000
