data_image0
_chemical_formula_structural       HCu4Rh8Sn4Cu4Rh8Sn4Cu4Rh8Sn4Cu4Rh8Sn4
_chemical_formula_sum              "H1 Cu16 Rh32 Sn16"
_cell_length_a       8.848294258117676
_cell_length_b       8.848294258117676
_cell_length_c       107.5401382446289
_cell_angle_alpha    90.0
_cell_angle_beta     90.0
_cell_angle_gamma    90.0

_space_group_name_H-M_alt    "P 1"
_space_group_IT_number       1

loop_
  _space_group_symop_operation_xyz
  'x, y, z'

loop_
  _atom_site_type_symbol
  _atom_site_label
  _atom_site_symmetry_multiplicity
  _atom_site_fract_x
  _atom_site_fract_y
  _atom_site_fract_z
  _atom_site_occupancy
  H   H1        1.0  0.0037500005725843487  0.0037500005725843487  0.00011451792313022432  1.0000
  Cu  Cu1       1.0  1.500000073136147e-10  1.500000073136147e-10  0.9995758525849844  1.0000
  Cu  Cu2       1.0  0.0025000005220622004  0.0025000007325711522  0.9998720973761415  1.0000
  Cu  Cu3       1.0  1.500000073136147e-10  1.500000073136147e-10  0.9989940523619912  1.0000
  Cu  Cu4       1.0  0.0025000003115532485  0.0025000003115532485  0.9992849524734878  1.0000
  Rh  Rh1       1.0  0.010000000404177187  0.002500001995624863  0.9999999024511438  1.0000
  Rh  Rh2       1.0  0.0025000007325711522  0.009999999562141381  0.0  1.0000
  Rh  Rh3       1.0  0.0025000003115532485  1.500000073136147e-10  0.9997213029178601  1.0000
  Rh  Rh4       1.0  1.500000073136147e-10  0.0025000003115532485  0.9997213029178601  1.0000
  Rh  Rh5       1.0  1.500000073136147e-10  0.0025000003115532485  0.9994304028063635  1.0000
  Rh  Rh6       1.0  0.0025000003115532485  1.500000073136147e-10  0.9994304028063635  1.0000
  Rh  Rh7       1.0  0.0025000003115532485  1.500000073136147e-10  0.9991395024177395  1.0000
  Rh  Rh8       1.0  1.500000073136147e-10  0.0025000003115532485  0.9991395024177395  1.0000
  Sn  Sn1       1.0  0.009999999562141381  0.010000000404177187  0.9998674499491008  1.0000
  Sn  Sn2       1.0  0.0025000003115532485  0.0025000003115532485  0.9995758525849844  1.0000
  Sn  Sn3       1.0  1.500000073136147e-10  1.500000073136147e-10  0.9992849524734878  1.0000
  Sn  Sn4       1.0  0.0025000003115532485  0.0025000003115532485  0.9989940523619912  1.0000
  Cu  Cu5       1.0  1.500000073136147e-10  0.005000000202088593  0.9995758525849844  1.0000
  Cu  Cu6       1.0  0.0025000005220622004  0.0075000011451686974  0.9998720973761415  1.0000
  Cu  Cu7       1.0  1.500000073136147e-10  0.005000000202088593  0.9989940523619912  1.0000
  Cu  Cu8       1.0  0.0025000003115532485  0.007500000303132891  0.9992849524734878  1.0000
  Rh  Rh9       1.0  0.010000000404177187  0.007500001987204505  0.9999999024511438  1.0000
  Rh  Rh10      1.0  0.0025000007325711522  0.004999999360052787  0.0  1.0000
  Rh  Rh11      1.0  0.0025000003115532485  0.005000000202088593  0.9997213029178601  1.0000
  Rh  Rh12      1.0  1.500000073136147e-10  0.007500000303132891  0.9997213029178601  1.0000
  Rh  Rh13      1.0  1.500000073136147e-10  0.007500000303132891  0.9994304028063635  1.0000
  Rh  Rh14      1.0  0.0025000003115532485  0.005000000202088593  0.9994304028063635  1.0000
  Rh  Rh15      1.0  0.0025000003115532485  0.005000000202088593  0.9991395024177395  1.0000
  Rh  Rh16      1.0  1.500000073136147e-10  0.007500000303132891  0.9991395024177395  1.0000
  Sn  Sn5       1.0  0.009999999562141381  0.005000000202088593  0.9998674499491008  1.0000
  Sn  Sn6       1.0  0.0025000003115532485  0.007500000303132891  0.9995758525849844  1.0000
  Sn  Sn7       1.0  1.500000073136147e-10  0.005000000202088593  0.9992849524734878  1.0000
  Sn  Sn8       1.0  0.0025000003115532485  0.007500000303132891  0.9989940523619912  1.0000
  Cu  Cu9       1.0  0.005000000202088593  1.500000073136147e-10  0.9995758525849844  1.0000
  Cu  Cu10      1.0  0.007500000303132891  0.0025000007325711522  0.9998720973761415  1.0000
  Cu  Cu11      1.0  0.005000000202088593  1.500000073136147e-10  0.9989940523619912  1.0000
  Cu  Cu12      1.0  0.007500000303132891  0.0025000003115532485  0.9992849524734878  1.0000
  Rh  Rh17      1.0  0.005000000202088593  0.002500001995624863  0.9999999024511438  1.0000
  Rh  Rh18      1.0  0.0075000011451686974  0.009999999562141381  0.0  1.0000
  Rh  Rh19      1.0  0.007500000303132891  1.500000073136147e-10  0.9997213029178601  1.0000
  Rh  Rh20      1.0  0.005000000202088593  0.0025000003115532485  0.9997213029178601  1.0000
  Rh  Rh21      1.0  0.005000000202088593  0.0025000003115532485  0.9994304028063635  1.0000
  Rh  Rh22      1.0  0.007500000303132891  1.500000073136147e-10  0.9994304028063635  1.0000
  Rh  Rh23      1.0  0.007500000303132891  1.500000073136147e-10  0.9991395024177395  1.0000
  Rh  Rh24      1.0  0.005000000202088593  0.0025000003115532485  0.9991395024177395  1.0000
  Sn  Sn9       1.0  0.0049999997810706905  0.010000000404177187  0.9998674499491008  1.0000
  Sn  Sn10      1.0  0.007500000303132891  0.0025000003115532485  0.9995758525849844  1.0000
  Sn  Sn11      1.0  0.005000000202088593  1.500000073136147e-10  0.9992849524734878  1.0000
  Sn  Sn12      1.0  0.007500000303132891  0.0025000003115532485  0.9989940523619912  1.0000
  Cu  Cu13      1.0  0.005000000202088593  0.005000000202088593  0.9995758525849844  1.0000
  Cu  Cu14      1.0  0.007500000303132891  0.0075000011451686974  0.9998720973761415  1.0000
  Cu  Cu15      1.0  0.005000000202088593  0.005000000202088593  0.9989940523619912  1.0000
  Cu  Cu16      1.0  0.007500000303132891  0.007500000303132891  0.9992849524734878  1.0000
  Rh  Rh25      1.0  0.005000000202088593  0.007500001987204505  0.9999999024511438  1.0000
  Rh  Rh26      1.0  0.0075000011451686974  0.004999999360052787  0.0  1.0000
  Rh  Rh27      1.0  0.007500000303132891  0.005000000202088593  0.9997213029178601  1.0000
  Rh  Rh28      1.0  0.005000000202088593  0.007500000303132891  0.9997213029178601  1.0000
  Rh  Rh29      1.0  0.005000000202088593  0.007500000303132891  0.9994304028063635  1.0000
  Rh  Rh30      1.0  0.007500000303132891  0.005000000202088593  0.9994304028063635  1.0000
  Rh  Rh31      1.0  0.007500000303132891  0.005000000202088593  0.9991395024177395  1.0000
  Rh  Rh32      1.0  0.005000000202088593  0.007500000303132891  0.9991395024177395  1.0000
  Sn  Sn13      1.0  0.0049999997810706905  0.005000000202088593  0.9998674499491008  1.0000
  Sn  Sn14      1.0  0.007500000303132891  0.007500000303132891  0.9995758525849844  1.0000
  Sn  Sn15      1.0  0.005000000202088593  0.005000000202088593  0.9992849524734878  1.0000
  Sn  Sn16      1.0  0.007500000303132891  0.007500000303132891  0.9989940523619912  1.0000
