data_image0
_chemical_formula_structural       HSb8
_chemical_formula_sum              "H1 Sb8"
_cell_length_a       4.616843223571777
_cell_length_b       6.392027449568235
_cell_length_c       100.9450454711914
_cell_angle_alpha    90.0
_cell_angle_beta     90.0
_cell_angle_gamma    93.44332286085987

_space_group_name_H-M_alt    "P 1"
_space_group_IT_number       1

loop_
  _space_group_symop_operation_xyz
  'x, y, z'

loop_
  _atom_site_type_symbol
  _atom_site_label
  _atom_site_symmetry_multiplicity
  _atom_site_fract_x
  _atom_site_fract_y
  _atom_site_fract_z
  _atom_site_occupancy
  H   H1        1.0  0.0017788949325227268  0.005777218925243405  0.00014859556132614833  1.0000
  Sb  Sb1       1.0  0.0046633148909715335  0.0026683425353189365  0.9995620665174522  1.0000
  Sb  Sb2       1.0  0.009663314547823846  0.007668342290099143  0.9993430997761783  1.0000
  Sb  Sb3       1.0  0.00033668497927114434  0.002331657511389595  0.9993430997761783  1.0000
  Sb  Sb4       1.0  0.00533668485045394  0.0073316572661698024  0.9995620665174522  1.0000
  Sb  Sb5       1.0  0.0046633148909715335  0.0026683425353189365  0.0  1.0000
  Sb  Sb6       1.0  0.009663314547823846  0.007668342290099143  0.9997810332587261  1.0000
  Sb  Sb7       1.0  0.00033668497927114434  0.002331657511389595  0.9997810332587261  1.0000
  Sb  Sb8       1.0  0.00533668485045394  0.0073316572661698024  0.0  1.0000
