data_image0
_chemical_formula_structural       HGe12Rh12Ge12Rh12
_chemical_formula_sum              "H1 Ge24 Rh24"
_cell_length_a       6.597250938415527
_cell_length_b       13.307313768463942
_cell_length_c       105.08595275878906
_cell_angle_alpha    101.46763200807341
_cell_angle_beta     90.0
_cell_angle_gamma    90.0

_space_group_name_H-M_alt    "P 1"
_space_group_IT_number       1

loop_
  _space_group_symop_operation_xyz
  'x, y, z'

loop_
  _atom_site_type_symbol
  _atom_site_label
  _atom_site_symmetry_multiplicity
  _atom_site_fract_x
  _atom_site_fract_y
  _atom_site_fract_z
  _atom_site_occupancy
  H   H1        1.0  0.0012500000959944312  0.0014027289524798734  0.0001492676210061465  1.0000
  Ge  Ge1       1.0  0.0012500000959944312  0.004563030662809117  0.9997569860070883  1.0000
  Ge  Ge2       1.0  0.0012500000959944312  0.0011386855942609943  2.8667987737719383e-05  1.0000
  Ge  Ge3       1.0  0.0012500000959944312  0.007896363763817558  0.9994787535769295  1.0000
  Ge  Ge4       1.0  0.0037500001468150123  0.002144039504086017  0.9998728112750979  1.0000
  Ge  Ge5       1.0  0.0037500001468150123  0.008772453507721364  0.9993032850085253  1.0000
  Ge  Ge6       1.0  0.0037500001468150123  0.0054391201210675635  0.9995815171478931  1.0000
  Ge  Ge7       1.0  0.0012500000959944312  0.004154331566914615  0.999271409790441  1.0000
  Ge  Ge8       1.0  0.0012500000959944312  0.0008209981802608142  0.9995496416462093  1.0000
  Ge  Ge9       1.0  0.0012500000959944312  0.007453176989740679  0.9998259078071464  1.0000
  Ge  Ge10      1.0  0.0037500001468150123  0.002514485830308265  0.9995106289683378  1.0000
  Ge  Ge11      1.0  0.0037500001468150123  0.0091895065878138  0.9997932580439415  1.0000
  Ge  Ge12      1.0  0.0037500001468150123  0.005785572522696969  5.585292282289235e-05  1.0000
  Rh  Rh1       1.0  0.0012500000959944312  0.003998431185409414  0.9995051919174691  1.0000
  Rh  Rh2       1.0  0.0012500000959944312  0.0006629471034289947  0.9997812905586565  1.0000
  Rh  Rh3       1.0  0.0012500000959944312  0.007130912465903541  4.624791866608258e-05  1.0000
  Rh  Rh4       1.0  0.0037500001468150123  0.002670386211813466  0.9992768468413097  1.0000
  Rh  Rh5       1.0  0.0037500001468150123  0.009337052699475707  0.9995550788073535  1.0000
  Rh  Rh6       1.0  0.0037500001468150123  0.006007777190805762  0.9998261549477289  1.0000
  Rh  Rh7       1.0  0.0012500000959944312  0.002643860326749773  0.9996964093629767  1.0000
  Rh  Rh8       1.0  0.0012500000959944312  0.00922782991188997  0.9999658726111789  1.0000
  Rh  Rh9       1.0  0.0012500000959944312  0.005977193713403574  0.9994181769400095  1.0000
  Rh  Rh10      1.0  0.0037500001468150123  0.004057732304722412  0.9999084793009938  1.0000
  Rh  Rh11      1.0  0.0037500001468150123  0.0006916238980533264  0.999363861824163  1.0000
  Rh  Rh12      1.0  0.0037500001468150123  0.007358290171481548  0.9996420937848132  1.0000
  Ge  Ge13      1.0  0.006250000338803875  0.004563030662809117  0.9997569860070883  1.0000
  Ge  Ge14      1.0  0.006250000338803875  0.0011386855942609943  2.8667987737719383e-05  1.0000
  Ge  Ge15      1.0  0.006250000338803875  0.007896363763817558  0.9994787535769295  1.0000
  Ge  Ge16      1.0  0.008750000248456175  0.002144039504086017  0.9998728112750979  1.0000
  Ge  Ge17      1.0  0.008750000248456175  0.008772453507721364  0.9993032850085253  1.0000
  Ge  Ge18      1.0  0.008750000248456175  0.0054391201210675635  0.9995815171478931  1.0000
  Ge  Ge19      1.0  0.006250000338803875  0.004154331566914615  0.999271409790441  1.0000
  Ge  Ge20      1.0  0.006250000338803875  0.0008209981802608142  0.9995496416462093  1.0000
  Ge  Ge21      1.0  0.006250000338803875  0.007453176989740679  0.9998259078071464  1.0000
  Ge  Ge22      1.0  0.008750000248456175  0.002514485830308265  0.9995106289683378  1.0000
  Ge  Ge23      1.0  0.008750000248456175  0.0091895065878138  0.9997932580439415  1.0000
  Ge  Ge24      1.0  0.008750000248456175  0.005785572522696969  5.585292282289235e-05  1.0000
  Rh  Rh13      1.0  0.006250000338803875  0.003998431185409414  0.9995051919174691  1.0000
  Rh  Rh14      1.0  0.006250000338803875  0.0006629471034289947  0.9997812905586565  1.0000
  Rh  Rh15      1.0  0.006250000338803875  0.007130912465903541  4.624791866608258e-05  1.0000
  Rh  Rh16      1.0  0.008750000248456175  0.002670386211813466  0.9992768468413097  1.0000
  Rh  Rh17      1.0  0.008750000248456175  0.009337052699475707  0.9995550788073535  1.0000
  Rh  Rh18      1.0  0.008750000248456175  0.006007777190805762  0.9998261549477289  1.0000
  Rh  Rh19      1.0  0.006250000338803875  0.002643860326749773  0.9996964093629767  1.0000
  Rh  Rh20      1.0  0.006250000338803875  0.00922782991188997  0.9999658726111789  1.0000
  Rh  Rh21      1.0  0.006250000338803875  0.005977193713403574  0.9994181769400095  1.0000
  Rh  Rh22      1.0  0.008750000248456175  0.004057732304722412  0.9999084793009938  1.0000
  Rh  Rh23      1.0  0.008750000248456175  0.0006916238980533264  0.999363861824163  1.0000
  Rh  Rh24      1.0  0.008750000248456175  0.007358290171481548  0.9996420937848132  1.0000
