data_image0
_chemical_formula_structural       COV2Rh6V2Rh6
_chemical_formula_sum              "C1 O1 V4 Rh12"
_cell_length_a       5.4390692710876465
_cell_length_b       5.439069518998088
_cell_length_c       100.30626678466797
_cell_angle_alpha    90.0
_cell_angle_beta     90.0
_cell_angle_gamma    119.99999849224002

_space_group_name_H-M_alt    "P 1"
_space_group_IT_number       1

loop_
  _space_group_symop_operation_xyz
  'x, y, z'

loop_
  _atom_site_type_symbol
  _atom_site_label
  _atom_site_symmetry_multiplicity
  _atom_site_fract_x
  _atom_site_fract_y
  _atom_site_fract_z
  _atom_site_occupancy
  C   C1        1.0  0.009170259770654072  0.00916144512422954  0.00017267391023418192  1.0000
  O   O1        1.0  0.009170259770654072  0.00916144512422954  0.0002923077546923359  1.0000
  V   V1        1.0  0.0025036028332337808  0.005828171042845442  0.9995716116960857  1.0000
  V   V2        1.0  0.005836936511634586  0.002494837646242542  0.9993557993167327  1.0000
  Rh  Rh1       1.0  0.0008473198010839823  0.0025156048929316963  0.9993557993167327  1.0000
  Rh  Rh2       1.0  0.005816168786621057  0.007484453623508825  0.9993557993167327  1.0000
  Rh  Rh3       1.0  0.0008473196317381851  0.007484453623508825  0.9993557993167327  1.0000
  Rh  Rh4       1.0  0.007493219145276166  0.005807403598438892  0.9995716116960857  1.0000
  Rh  Rh5       1.0  0.002524370189301616  0.000838554670144367  0.9995716116960857  1.0000
  Rh  Rh6       1.0  0.007493219686641084  0.000838554670144367  0.9995716116960857  1.0000
  V   V3        1.0  0.002503594503055877  0.005828137430888122  0.9999840848308665  1.0000
  V   V4        1.0  0.005836931505329457  0.002494834482764206  0.9997911457161914  1.0000
  Rh  Rh7       1.0  0.0008297801164484773  0.002480454891987714  0.99978728859179  1.0000
  Rh  Rh8       1.0  0.005851435263963215  0.007502097923928115  0.9997872975051879  1.0000
  Rh  Rh9       1.0  0.0008297402364187716  0.007502135885668147  0.9997872975051879  1.0000
  Rh  Rh10      1.0  0.007462154743391035  0.005745220686526427  0.0  1.0000
  Rh  Rh11      1.0  0.00258648193266121  0.0008695631836529762  0.9999999976230939  1.0000
  Rh  Rh12      1.0  0.00746214289096541  0.0008695520126201021  0.9999999964346408  1.0000
