data_image0
_chemical_formula_structural       COGa4Sb4Ga4Sb4Ga4Sb4Ga4Sb4
_chemical_formula_sum              "C1 O1 Ga16 Sb16"
_cell_length_a       8.895852088928223
_cell_length_b       8.895852088928223
_cell_length_c       107.74190521240234
_cell_angle_alpha    90.0
_cell_angle_beta     90.0
_cell_angle_gamma    90.0

_space_group_name_H-M_alt    "P 1"
_space_group_IT_number       1

loop_
  _space_group_symop_operation_xyz
  'x, y, z'

loop_
  _atom_site_type_symbol
  _atom_site_label
  _atom_site_symmetry_multiplicity
  _atom_site_fract_x
  _atom_site_fract_y
  _atom_site_fract_z
  _atom_site_occupancy
  C   C1        1.0  0.0012500084214066458  0.003750000033501369  0.0001607587510773125  1.0000
  O   O1        1.0  0.0012500084214066458  0.003750000033501369  0.00027213625359166126  1.0000
  Ga  Ga1       1.0  0.0012500000460643824  0.0012499999413726041  0.9995603518764091  1.0000
  Ga  Ga2       1.0  0.003749995427063124  0.003750000033501369  0.9998574288083293  1.0000
  Ga  Ga3       1.0  0.0012500000460643824  0.0012499999413726041  0.9989765199338306  1.0000
  Ga  Ga4       1.0  0.003750000033501369  0.003750000033501369  0.9992684359051199  1.0000
  Sb  Sb1       1.0  0.0012500084214066458  0.003750000033501369  0.0  1.0000
  Sb  Sb2       1.0  0.003750000033501369  0.0012499999413726041  0.9997063098620538  1.0000
  Sb  Sb3       1.0  0.0012500000460643824  0.003750000033501369  0.9994143938907645  1.0000
  Sb  Sb4       1.0  0.003750000033501369  0.0012499999413726041  0.9991224779194753  1.0000
  Ga  Ga5       1.0  0.0012500000460643824  0.006249999916246577  0.9995603518764091  1.0000
  Ga  Ga6       1.0  0.003749995427063124  0.008749999798991786  0.9998574288083293  1.0000
  Ga  Ga7       1.0  0.0012500000460643824  0.006249999916246577  0.9989765199338306  1.0000
  Ga  Ga8       1.0  0.003750000033501369  0.008749999798991786  0.9992684359051199  1.0000
  Sb  Sb5       1.0  0.0012500084214066458  0.008750000636526012  0.0  1.0000
  Sb  Sb6       1.0  0.003750000033501369  0.006249999916246577  0.9997063098620538  1.0000
  Sb  Sb7       1.0  0.0012500000460643824  0.008749999798991786  0.9994143938907645  1.0000
  Sb  Sb8       1.0  0.003750000033501369  0.006249999916246577  0.9991224779194753  1.0000
  Ga  Ga9       1.0  0.006250000335013691  0.0012499999413726041  0.9995603518764091  1.0000
  Ga  Ga10      1.0  0.008749995611320654  0.003750000033501369  0.9998574288083293  1.0000
  Ga  Ga11      1.0  0.006250000335013691  0.0012499999413726041  0.9989765199338306  1.0000
  Ga  Ga12      1.0  0.008750000636526012  0.003750000033501369  0.9992684359051199  1.0000
  Sb  Sb9       1.0  0.006250008710355953  0.003750000033501369  0.0  1.0000
  Sb  Sb10      1.0  0.008750000636526012  0.0012499999413726041  0.9997063098620538  1.0000
  Sb  Sb11      1.0  0.006250000335013691  0.003750000033501369  0.9994143938907645  1.0000
  Sb  Sb12      1.0  0.008750000636526012  0.0012499999413726041  0.9991224779194753  1.0000
  Ga  Ga13      1.0  0.006250000335013691  0.006249999916246577  0.9995603518764091  1.0000
  Ga  Ga14      1.0  0.008749995611320654  0.008749999798991786  0.9998574288083293  1.0000
  Ga  Ga15      1.0  0.006250000335013691  0.006249999916246577  0.9989765199338306  1.0000
  Ga  Ga16      1.0  0.008750000636526012  0.008749999798991786  0.9992684359051199  1.0000
  Sb  Sb13      1.0  0.006250008710355953  0.008750000636526012  0.0  1.0000
  Sb  Sb14      1.0  0.008750000636526012  0.006249999916246577  0.9997063098620538  1.0000
  Sb  Sb15      1.0  0.006250000335013691  0.008749999798991786  0.9994143938907645  1.0000
  Sb  Sb16      1.0  0.008750000636526012  0.006249999916246577  0.9991224779194753  1.0000
