data_image0
_chemical_formula_structural       HV12As12Rh12
_chemical_formula_sum              "H1 V12 As12 Rh12"
_cell_length_a       8.299823151922812
_cell_length_b       7.290469113734654
_cell_length_c       111.31999206542969
_cell_angle_alpha    107.37745542035606
_cell_angle_beta     116.47986743527811
_cell_angle_gamma    75.32510280858764

_space_group_name_H-M_alt    "P 1"
_space_group_IT_number       1

loop_
  _space_group_symop_operation_xyz
  'x, y, z'

loop_
  _atom_site_type_symbol
  _atom_site_label
  _atom_site_symmetry_multiplicity
  _atom_site_fract_x
  _atom_site_fract_y
  _atom_site_fract_z
  _atom_site_occupancy
  H   H1        1.0  0.0007196106677850003  0.004469247184531589  0.00032255204443335515  1.0000
  V   V1        1.0  0.0055115328326385314  0.009794159359217534  0.9997857531550863  1.0000
  V   V2        1.0  0.008925109118088052  0.0031691002694726024  9.44369184208159e-05  1.0000
  V   V3        1.0  0.002178199492552106  0.006460826348149601  0.999476434538782  1.0000
  V   V4        1.0  0.004770129893409621  0.0026648609140992926  0.9995881636285321  1.0000
  V   V5        1.0  0.008103463233496047  0.005998194192876471  0.9998974822500728  1.0000
  V   V6        1.0  0.0012811069198673298  0.009050377112195402  0.00018063872470620566  1.0000
  V   V7        1.0  0.007894033461324423  0.006417053922615352  0.9994140702721583  1.0000
  V   V8        1.0  0.0012273666545310894  0.009750387276995526  0.9997233884726555  1.0000
  V   V9        1.0  0.004643318973341514  0.00304912473002109  3.432895869774555e-05  1.0000
  V   V10       1.0  0.008635435894071402  0.0035463528185994556  0.9996116596300634  1.0000
  V   V11       1.0  0.001968769467139517  0.006879686115924941  0.9999209781097903  1.0000
  V   V12       1.0  0.004975246465453037  0.0014701844579296168  0.0001941551655671837  1.0000
  As  As1       1.0  0.0059470561390083335  0.005937207745480609  0.999639268560467  1.0000
  As  As2       1.0  0.009280388972612828  0.009270540832621459  0.9999485868937041  1.0000
  As  As3       1.0  0.00221265495186655  0.002384946859077657  0.0002632484696477757  1.0000
  As  As4       1.0  0.0008853723908603561  0.006060574954846488  0.9996335446144012  1.0000
  As  As5       1.0  0.004218705794257023  0.009393907956405307  0.9999428632326244  1.0000
  As  As6       1.0  0.007624179888249178  0.0029906153894909216  0.0002534468672209103  1.0000
  As  As7       1.0  0.002520193566292115  0.00015063890630064738  0.9995662785024253  1.0000
  As  As8       1.0  0.005853527159619507  0.0034839720466504007  0.9998755971296772  1.0000
  As  As9       1.0  0.00927867908961226  0.0068005812720455415  0.00017913621969702778  1.0000
  As  As10      1.0  0.007458510154954621  0.0002740060449998451  0.9995605544483785  1.0000
  As  As11      1.0  0.0007918434747817703  0.003607339246507167  0.9998698729178126  1.0000
  As  As12      1.0  0.004071798430871975  0.007057156036567643  0.00018007236807490395  1.0000
  Rh  Rh1       1.0  0.008442236335393016  0.007760296288124719  0.999702530283055  1.0000
  Rh  Rh2       1.0  0.0017398091185888624  0.0010901993052243315  7.77118860650989e-06  1.0000
  Rh  Rh3       1.0  0.00510890299530659  0.004426963277056785  0.9993932116667507  1.0000
  Rh  Rh4       1.0  0.009264107604444516  0.009849361064524515  0.9994324082930414  1.0000
  Rh  Rh5       1.0  0.0025974409242716643  0.0031826945069701575  0.9997417266065576  1.0000
  Rh  Rh6       1.0  0.005908989463522669  0.0065399303115962724  5.1149958394662223e-05  1.0000
  Rh  Rh7       1.0  0.004141458436277474  0.006361852255344831  0.9997674145910933  1.0000
  Rh  Rh8       1.0  0.007492424185084348  0.00983781039454005  8.309042349106611e-05  1.0000
  Rh  Rh9       1.0  0.0008081250961910483  0.0030285192442768972  0.9994580965102241  1.0000
  Rh  Rh10      1.0  0.004963329958569939  0.008450916993708167  0.9994972931441897  1.0000
  Rh  Rh11      1.0  0.008296662792174433  0.001784250187932717  0.9998066115866083  1.0000
  Rh  Rh12      1.0  0.001926406685290831  0.0048693539801873895  0.0001255494700861196  1.0000
