data_image0
_chemical_formula_structural       HNb12Ga4
_chemical_formula_sum              "H1 Nb12 Ga4"
_cell_length_a       7.395738124847412
_cell_length_b       5.229576587677002
_cell_length_c       99.58295440673828
_cell_angle_alpha    90.0
_cell_angle_beta     90.0
_cell_angle_gamma    90.0

_space_group_name_H-M_alt    "P 1"
_space_group_IT_number       1

loop_
  _space_group_symop_operation_xyz
  'x, y, z'

loop_
  _atom_site_type_symbol
  _atom_site_label
  _atom_site_symmetry_multiplicity
  _atom_site_fract_x
  _atom_site_fract_y
  _atom_site_fract_z
  _atom_site_occupancy
  H   H1        1.0  0.003617398311246167  0.0050000068528096055  3.290847308075051e-05  1.0000
  Nb  Nb1       1.0  0.007451820095819552  0.004999999729306897  0.9998433206893036  1.0000
  Nb  Nb2       1.0  0.002367758925668345  0.005000004359583657  0.9994610012765143  1.0000
  Nb  Nb3       1.0  0.00021654754824766294  0.005000017181888532  9.816099352945714e-08  1.0000
  Nb  Nb4       1.0  0.0048677587544077245  0.005000004359583657  0.9996466692045194  1.0000
  Nb  Nb5       1.0  0.0036173968001230435  0.007500793330249597  0.9999091885115897  1.0000
  Nb  Nb6       1.0  0.008617758875297574  0.007500004046149538  0.9995538352405169  1.0000
  Nb  Nb7       1.0  0.003617400074223144  0.0024992200191944775  0.9999091867159619  1.0000
  Nb  Nb8       1.0  0.008617758875297574  0.002500004494930209  0.9995538352405169  1.0000
  Nb  Nb9       1.0  0.0048677587544077245  4.499999818611204e-09  0.9994610012765143  1.0000
  Nb  Nb10      1.0  0.009783452349121891  1.1999999063396437e-08  0.9998433470251799  1.0000
  Nb  Nb11      1.0  0.007019419769661961  0.009999939621191046  0.0  1.0000
  Nb  Nb12      1.0  0.002367758925668345  4.499999818611204e-09  0.9996466692045194  1.0000
  Ga  Ga1       1.0  0.006132388481370101  0.009999995184512169  0.9997310867611408  1.0000
  Ga  Ga2       1.0  0.0011177590112986554  4.499999818611204e-09  0.999368167611783  1.0000
  Ga  Ga3       1.0  0.0061177587947043414  0.005000004359583657  0.999368167611783  1.0000
  Ga  Ga4       1.0  0.0010964907088977572  0.005000016469538261  0.9997313584995009  1.0000
