data_image0
_chemical_formula_structural       COCu6Pd2Cu6Pd2Cu6Pd2Cu6Pd2
_chemical_formula_sum              "C1 O1 Cu24 Pd8"
_cell_length_a       7.5269999504089355
_cell_length_b       5.322392463684082
_cell_length_c       101.93435668945312
_cell_angle_alpha    90.0
_cell_angle_beta     90.0
_cell_angle_gamma    90.0

_space_group_name_H-M_alt    "P 1"
_space_group_IT_number       1

loop_
  _space_group_symop_operation_xyz
  'x, y, z'

loop_
  _atom_site_type_symbol
  _atom_site_label
  _atom_site_symmetry_multiplicity
  _atom_site_fract_x
  _atom_site_fract_y
  _atom_site_fract_z
  _atom_site_occupancy
  C   C1        1.0  0.0024999999208122157  0.009999997564251352  4.443756483548067e-05  1.0000
  O   O1        1.0  0.0024999999208122157  0.009999997564251352  0.00016216062414956057  1.0000
  Cu  Cu1       1.0  0.0024999999208122157  0.002500002715719755  0.9990904005410628  1.0000
  Cu  Cu2       1.0  0.0024999999208122157  0.00750000254773709  0.9993514703573679  1.0000
  Cu  Cu3       1.0  0.0  0.005000002631728422  0.9994820049731526  1.0000
  Cu  Cu4       1.0  0.0  2.550000165781652e-09  0.9992209354492154  1.0000
  Cu  Cu5       1.0  0.0024999999208122157  0.00750000254773709  0.9990904005410628  1.0000
  Cu  Cu6       1.0  0.0024999999208122157  0.002500002715719755  0.9993514703573679  1.0000
  Pd  Pd1       1.0  0.0  0.005000002631728422  0.9992209354492154  1.0000
  Pd  Pd2       1.0  0.0  2.550000165781652e-09  0.9994820049731526  1.0000
  Cu  Cu7       1.0  0.0024999999208122157  0.002500002715719755  0.9996125395889375  1.0000
  Cu  Cu8       1.0  0.0024999999208122157  0.0075117445360390455  0.9998745210080056  1.0000
  Cu  Cu9       1.0  0.009999999683248863  0.00500000018198122  0.9999913991244123  1.0000
  Cu  Cu10      1.0  0.0  5.7500002036735135e-09  0.9997438407930623  1.0000
  Cu  Cu11      1.0  0.0024999999208122157  0.00750000254773709  0.9996125395889375  1.0000
  Cu  Cu12      1.0  0.0024999999208122157  0.002488250753447049  0.9998745180843277  1.0000
  Pd  Pd3       1.0  0.0  0.005000003331656194  0.9997403434895822  1.0000
  Pd  Pd4       1.0  0.009999999683248863  8.050000418643547e-09  0.0  1.0000
  Cu  Cu13      1.0  0.007499999762436647  0.002500002715719755  0.9990904005410628  1.0000
  Cu  Cu14      1.0  0.007499999762436647  0.00750000254773709  0.9993514703573679  1.0000
  Cu  Cu15      1.0  0.004999999841624431  0.005000002631728422  0.9994820049731526  1.0000
  Cu  Cu16      1.0  0.004999999841624431  2.550000165781652e-09  0.9992209354492154  1.0000
  Cu  Cu17      1.0  0.007499999762436647  0.00750000254773709  0.9990904005410628  1.0000
  Cu  Cu18      1.0  0.007499999762436647  0.002500002715719755  0.9993514703573679  1.0000
  Pd  Pd5       1.0  0.004999999841624431  0.005000002631728422  0.9992209354492154  1.0000
  Pd  Pd6       1.0  0.004999999841624431  2.550000165781652e-09  0.9994820049731526  1.0000
  Cu  Cu19      1.0  0.007499999762436647  0.002500002715719755  0.9996125395889375  1.0000
  Cu  Cu20      1.0  0.007499999762436647  0.0075117445360390455  0.9998745210080056  1.0000
  Cu  Cu21      1.0  0.004999999841624431  0.00500000018198122  0.9999913991244123  1.0000
  Cu  Cu22      1.0  0.004999999841624431  5.7500002036735135e-09  0.9997438407930623  1.0000
  Cu  Cu23      1.0  0.007499999762436647  0.00750000254773709  0.9996125395889375  1.0000
  Cu  Cu24      1.0  0.007499999762436647  0.002488250753447049  0.9998745180843277  1.0000
  Pd  Pd7       1.0  0.004999999841624431  0.005000003331656194  0.9997403434895822  1.0000
  Pd  Pd8       1.0  0.004999999841624431  8.050000418643547e-09  0.0  1.0000
