data_image0
_chemical_formula_structural       HSn8Se8Sn8Se8
_chemical_formula_sum              "H1 Sn16 Se16"
_cell_length_a       14.653386383223665
_cell_length_b       6.2522771904112
_cell_length_c       107.51366424560547
_cell_angle_alpha    93.99068679734496
_cell_angle_beta     66.61025696151053
_cell_angle_gamma    66.6102557623044

_space_group_name_H-M_alt    "P 1"
_space_group_IT_number       1

loop_
  _space_group_symop_operation_xyz
  'x, y, z'

loop_
  _atom_site_type_symbol
  _atom_site_label
  _atom_site_symmetry_multiplicity
  _atom_site_fract_x
  _atom_site_fract_y
  _atom_site_fract_z
  _atom_site_occupancy
  H   H1        1.0  0.002963563431033518  0.004895329503882382  0.9998594649868489  1.0000
  Sn  Sn1       1.0  0.005939691260015202  0.004532625346922437  0.9993180991124172  1.0000
  Sn  Sn2       1.0  0.005987873543915461  0.00943280020195845  0.99955979413633  1.0000
  Sn  Sn3       1.0  0.0035021383437282725  0.005467374241109982  0.9992564776086331  1.0000
  Sn  Sn4       1.0  0.0033178820793523106  0.001019728621976509  0.9995546980832903  1.0000
  Sn  Sn5       1.0  0.008502138131132706  0.001970178475804933  0.9994598509273567  1.0000
  Sn  Sn6       1.0  0.009060308414838639  0.005532286622433009  0.9997150599607898  1.0000
  Sn  Sn7       1.0  0.0009778802017082718  0.008129675166014384  0.9996918399176585  1.0000
  Sn  Sn8       1.0  0.0009396913162904989  0.003029821125201149  0.9994054925513667  1.0000
  Se  Se1       1.0  0.0032573298599186304  0.005422469675011459  0.9995711991614299  1.0000
  Se  Se2       1.0  0.003272361616994071  0.00027047457084166586  0.9992946524690054  1.0000
  Se  Se3       1.0  0.006183554006196866  0.004802393802335491  0.9995602973937364  1.0000
  Se  Se4       1.0  0.006169468299389942  0.009729525600466513  0.9992799242374897  1.0000
  Se  Se5       1.0  0.0011694683556652387  0.007373367676878339  0.9994169425694016  1.0000
  Se  Se6       1.0  0.0010533987581847792  0.002521593657346225  0.9997292113645616  1.0000
  Se  Se7       1.0  0.008215040950207938  0.0025676987077357123  0.9997323256376569  1.0000
  Se  Se8       1.0  0.008272361091757966  0.007626632808098488  0.9994484006495633  1.0000
  Sn  Sn9       1.0  0.005939691260015202  0.004532625346922437  0.9987365658774279  1.0000
  Sn  Sn10      1.0  0.005939691260015202  0.009532625490269044  0.9990273329182261  1.0000
  Sn  Sn11      1.0  0.0035021383437282725  0.005467374241109982  0.9986749443736437  1.0000
  Sn  Sn12      1.0  0.0035021383437282725  0.0004673740977633761  0.9989657111222262  1.0000
  Sn  Sn13      1.0  0.008502138131132706  0.001970178475804933  0.9988783176923673  1.0000
  Sn  Sn14      1.0  0.008502138131132706  0.0069701786191515396  0.9991690847331656  1.0000
  Sn  Sn15      1.0  0.0009396913162904989  0.008029821268547756  0.9991147258027842  1.0000
  Sn  Sn16      1.0  0.0009396913162904989  0.003029821125201149  0.9988239590391816  1.0000
  Se  Se9       1.0  0.003272361616994071  0.005270474415549508  0.9990038857192143  1.0000
  Se  Se10      1.0  0.003272361616994071  0.00027047457084166586  0.9987131192340161  1.0000
  Se  Se11      1.0  0.006169468299389942  0.004729525457119905  0.9989891577510829  1.0000
  Se  Se12      1.0  0.006169468299389942  0.009729525600466513  0.9986983910025004  1.0000
  Se  Se13      1.0  0.0011694683556652387  0.007373367676878339  0.998835409611608  1.0000
  Se  Se14      1.0  0.0011694683556652387  0.0023733678321704982  0.9991261760842034  1.0000
  Se  Se15      1.0  0.008272361091757966  0.0026266326647518805  0.9991576341631565  1.0000
  Se  Se16      1.0  0.008272361091757966  0.007626632808098488  0.998866867414574  1.0000
