data_image0
_chemical_formula_structural       Au6Ni12Sn24H
_chemical_formula_sum              "Au6 Ni12 Sn24 H1"
_cell_length_a       9.424022958730488
_cell_length_b       11.434068863224615
_cell_length_c       100.25170135498047
_cell_angle_alpha    79.10660496687895
_cell_angle_beta     84.36060197925431
_cell_angle_gamma    74.9304926088655

_space_group_name_H-M_alt    "P 1"
_space_group_IT_number       1

loop_
  _space_group_symop_operation_xyz
  'x, y, z'

loop_
  _atom_site_type_symbol
  _atom_site_label
  _atom_site_symmetry_multiplicity
  _atom_site_fract_x
  _atom_site_fract_y
  _atom_site_fract_z
  _atom_site_occupancy
  Au  Au1       1.0  0.00502973687182988  0.0004923325434709331  0.99978753337904  1.0000
  Au  Au2       1.0  0.005043235634018788  0.004234685836932838  0.9996643333769195  1.0000
  Au  Au3       1.0  0.005036473353657844  0.008055512723874468  0.9995204287110416  1.0000
  Au  Au4       1.0  0.005036473236020478  0.0018650366625311587  0.9993767350036679  1.0000
  Au  Au5       1.0  0.0050364732610677495  0.005674560655971496  0.9992330406278993  1.0000
  Au  Au6       1.0  0.00503647288889526  0.009484084649411834  0.9990893465530749  1.0000
  Ni  Ni1       1.0  0.0020161591830088242  0.0010889662166453055  0.9998016670587185  1.0000
  Ni  Ni2       1.0  0.0020411066022687765  0.004865386335591121  0.9996749890017287  1.0000
  Ni  Ni3       1.0  0.0020539382677402726  0.008670957004128671  0.9995347144505526  1.0000
  Ni  Ni4       1.0  0.008017708558052151  0.009900472549492422  0.9997788146576884  1.0000
  Ni  Ni5       1.0  0.008029085439488924  0.0037067563778464046  0.999646631853436  1.0000
  Ni  Ni6       1.0  0.008019007839814822  0.007440069128415848  0.9995061429623108  1.0000
  Ni  Ni7       1.0  0.0020539383526437384  0.0024804802579897786  0.999391020756068  1.0000
  Ni  Ni8       1.0  0.0020539383776910104  0.006290004251430116  0.9992473263802994  1.0000
  Ni  Ni9       1.0  0.0020539383613240596  9.952784768901542e-05  0.9991036323820952  1.0000
  Ni  Ni10      1.0  0.008019008170032425  0.0012495928958736432  0.99936244925449  1.0000
  Ni  Ni11      1.0  0.008019007848495144  0.0050591167181150845  0.999218754885613  1.0000
  Ni  Ni12      1.0  0.00801900757759307  0.00886864036915763  0.9990750611145083  1.0000
  Sn  Sn1       1.0  0.009027147309339678  0.009295532348691512  0.9995492120776492  1.0000
  Sn  Sn2       1.0  0.009040327838514262  0.001705342846086265  0.9998448163283481  1.0000
  Sn  Sn3       1.0  0.009043432212153375  0.005491680859466009  0.9997137640615319  1.0000
  Sn  Sn4       1.0  0.0032582602168894363  0.0004344100506456187  0.9995761323081654  1.0000
  Sn  Sn5       1.0  0.003268971132012095  0.002816144454702865  0.9998456846208676  1.0000
  Sn  Sn6       1.0  0.003239561109008609  0.006682842716194239  0.9997185390755772  1.0000
  Sn  Sn7       1.0  0.0009565670666015822  0.0030590726063227866  0.9996331501377129  1.0000
  Sn  Sn8       1.0  0.001045798603536487  0.0068154930990574234  0.9994916453517727  1.0000
  Sn  Sn9       1.0  0.0009601572494214595  0.009139265420544692  0.9997941418594816  1.0000
  Sn  Sn10      1.0  0.006784857074310329  0.0019014859346493328  0.9996100691745916  1.0000
  Sn  Sn11      1.0  0.006693796828040023  0.005650033332561979  0.9994645925575071  1.0000
  Sn  Sn12      1.0  0.0068351363841674525  0.008056392686199097  0.9997492230790932  1.0000
  Sn  Sn13      1.0  0.009027147648237603  0.0007241037058485444  0.9991181302931306  1.0000
  Sn  Sn14      1.0  0.009027147588922074  0.003105056287348203  0.9994055183666062  1.0000
  Sn  Sn15      1.0  0.009027147216749583  0.006914580280788541  0.9992618239945068  1.0000
  Sn  Sn16      1.0  0.0033791493730988584  0.0018895636435428838  0.9991451830841739  1.0000
  Sn  Sn17      1.0  0.003379149364418537  0.004270516053843647  0.9994325711608717  1.0000
  Sn  Sn18      1.0  0.003379149389465809  0.008080040047283984  0.9992888767851031  1.0000
  Sn  Sn19      1.0  0.0010457985109463925  0.004434541031154452  0.9992042572686303  1.0000
  Sn  Sn20      1.0  0.001045798535993664  0.00824406502459479  0.9990605631901367  1.0000
  Sn  Sn21      1.0  0.0010457984732403188  0.0006250170805138382  0.9993479513463184  1.0000
  Sn  Sn22      1.0  0.006693796836720345  0.0032690809222612163  0.9991772044808093  1.0000
  Sn  Sn23      1.0  0.006693796565818271  0.007078604573303763  0.9990335104124296  1.0000
  Sn  Sn24      1.0  0.006693796455867534  0.009459557326002318  0.9993208987799578  1.0000
  H   H1        1.0  0.007931142345243742  0.008675962175047512  0.9997988408343397  1.0000
