data_image0
_chemical_formula_structural       COCa4Zn4Si4Ca4Zn4Si4
_chemical_formula_sum              "C1 O1 Ca8 Zn8 Si8"
_cell_length_a       7.418883323669434
_cell_length_b       9.355287565468721
_cell_length_c       99.98306274414062
_cell_angle_alpha    103.23371411116811
_cell_angle_beta     90.0
_cell_angle_gamma    66.63997395658473

_space_group_name_H-M_alt    "P 1"
_space_group_IT_number       1

loop_
  _space_group_symop_operation_xyz
  'x, y, z'

loop_
  _atom_site_type_symbol
  _atom_site_label
  _atom_site_symmetry_multiplicity
  _atom_site_fract_x
  _atom_site_fract_y
  _atom_site_fract_z
  _atom_site_occupancy
  C   C1        1.0  0.008502275884888654  0.004272706837496927  9.15218033779276e-05  1.0000
  O   O1        1.0  0.008502275884888654  0.004272706837496927  0.0002115423747561365  1.0000
  Ca  Ca1       1.0  0.007708332711983538  0.006188737218288364  0.9993227468736997  1.0000
  Ca  Ca2       1.0  0.0027083330333507434  0.006188737218288364  0.999536947708516  1.0000
  Ca  Ca3       1.0  0.00020833332772304423  0.001188737021210042  0.9996440483422772  1.0000
  Ca  Ca4       1.0  0.005208333131889904  0.001188737021210042  0.9994298472093872  1.0000
  Zn  Zn1       1.0  0.0006249999635317932  0.003688737119749203  0.9994833974589517  1.0000
  Zn  Zn2       1.0  0.005624999642164588  0.003688737119749203  0.9992691966241354  1.0000
  Zn  Zn3       1.0  0.004791666215146012  0.008688737092874887  0.9995904979532833  1.0000
  Zn  Zn4       1.0  0.00979166689805132  0.008688737092874887  0.999376297118467  1.0000
  Si  Si1       1.0  0.007291666201708854  0.003688737119749203  0.9994833974589517  1.0000
  Si  Si2       1.0  0.0022916665230760585  0.003688737119749203  0.9992691966241354  1.0000
  Si  Si3       1.0  0.008125000338507056  0.008688737092874887  0.9995904979532833  1.0000
  Si  Si4       1.0  0.0031249996556017468  0.008688737092874887  0.999376297118467  1.0000
  Ca  Ca5       1.0  0.007708332711983538  0.006188737218288364  0.9997511488414059  1.0000
  Ca  Ca6       1.0  0.002706091112890064  0.006176542101318724  0.999957285780119  1.0000
  Ca  Ca7       1.0  0.00978710526570762  0.0012575668490384067  5.2331297979440416e-05  1.0000
  Ca  Ca8       1.0  0.005250813248054266  0.0012500129265462865  0.9998554092482055  1.0000
  Zn  Zn5       1.0  0.0004181598203276833  0.003742468060698862  0.9999062219308894  1.0000
  Zn  Zn6       1.0  0.005624999642164588  0.003688737119749203  0.9996975985918416  1.0000
  Zn  Zn7       1.0  0.005137393502861911  0.008708062413944855  8.591265731920991e-06  1.0000
  Zn  Zn8       1.0  0.009755778729941345  0.008662203184281158  0.9998044183683543  1.0000
  Si  Si5       1.0  0.007105694193982168  0.003764342410698724  0.9999190515983597  1.0000
  Si  Si6       1.0  0.0022916665230760585  0.003688737119749203  0.9996975985918416  1.0000
  Si  Si7       1.0  0.00834643987814711  0.00867317596775059  2.6522485526152612e-05  1.0000
  Si  Si8       1.0  0.0030536797306236654  0.008811263372946602  0.9998184387798431  1.0000
