data_image0
_chemical_formula_structural       HPd12V4
_chemical_formula_sum              "H1 Pd12 V4"
_cell_length_a       4.804727554321289
_cell_length_b       4.8047277102712895
_cell_length_c       103.05157470703125
_cell_angle_alpha    90.0
_cell_angle_beta     90.0
_cell_angle_gamma    110.04600893054712

_space_group_name_H-M_alt    "P 1"
_space_group_IT_number       1

loop_
  _space_group_symop_operation_xyz
  'x, y, z'

loop_
  _atom_site_type_symbol
  _atom_site_label
  _atom_site_symmetry_multiplicity
  _atom_site_fract_x
  _atom_site_fract_y
  _atom_site_fract_z
  _atom_site_occupancy
  H   H1        1.0  0.007499994076132732  0.002499994932415658  2.425562530613357e-05  1.0000
  Pd  Pd1       1.0  1.6844022005859557e-09  0.005000002244923357  0.9990955753699923  1.0000
  Pd  Pd2       1.0  0.005000001895890137  2.499999924953752e-09  0.9993628490977685  1.0000
  Pd  Pd3       1.0  0.005000001895890137  2.499999924953752e-09  0.9990955753699923  1.0000
  Pd  Pd4       1.0  1.6844022005859557e-09  0.005000002244923357  0.9993628490977685  1.0000
  Pd  Pd5       1.0  0.005000001560348039  0.005000002244923357  0.9994964858170575  1.0000
  Pd  Pd6       1.0  1.6999999466577109e-09  2.499999924953752e-09  0.9992292123784794  1.0000
  Pd  Pd7       1.0  1.6844022005859557e-09  0.005000002244923357  0.9996301231147429  1.0000
  Pd  Pd8       1.0  0.004999991708830777  0.009999994585773081  0.9999046988060273  1.0000
  Pd  Pd9       1.0  0.005000001895890137  2.499999924953752e-09  0.9996301231147429  1.0000
  Pd  Pd10      1.0  0.00999999631791297  0.004999995229537866  0.9999046993844235  1.0000
  Pd  Pd11      1.0  0.004999995918147992  0.004999999356235214  3.342783310145659e-05  1.0000
  Pd  Pd12      1.0  0.009999998248531714  0.009999997061791489  0.9997607620062476  1.0000
  V   V1        1.0  0.005000001560348039  0.005000002244923357  0.9992292123784794  1.0000
  V   V2        1.0  1.6999999466577109e-09  2.499999924953752e-09  0.9994964858170575  1.0000
  V   V3        1.0  0.004999996976391928  0.005000000181574683  0.999774910735412  1.0000
  V   V4        1.0  0.009999992108595757  0.009999990459075733  0.0  1.0000
