data_image0
_chemical_formula_structural       HIn20Ag4Se32
_chemical_formula_sum              "H1 In20 Ag4 Se32"
_cell_length_a       25.159457613312142
_cell_length_b       8.462394714355469
_cell_length_c       103.84957885742188
_cell_angle_alpha    90.0
_cell_angle_beta     80.31826050254257
_cell_angle_gamma    80.31826050254257

_space_group_name_H-M_alt    "P 1"
_space_group_IT_number       1

loop_
  _space_group_symop_operation_xyz
  'x, y, z'

loop_
  _atom_site_type_symbol
  _atom_site_label
  _atom_site_symmetry_multiplicity
  _atom_site_fract_x
  _atom_site_fract_y
  _atom_site_fract_z
  _atom_site_occupancy
  H   H1        1.0  0.004265095319656577  0.006509942817960318  0.9998089352832995  1.0000
  In  In1       1.0  0.006512914775352149  0.004223002578578367  0.9993488236928568  1.0000
  In  In2       1.0  0.0015839784500585648  0.006670144679216004  0.9995215693364842  1.0000
  In  In3       1.0  0.0015129146716919692  0.0017230030354081277  0.9991451061676874  1.0000
  In  In4       1.0  0.006512914775352149  0.009223002613795729  0.9989413885651968  1.0000
  In  In5       1.0  0.008968564048273312  0.0029951779421177856  0.9992487718984436  1.0000
  In  In6       1.0  0.003981074356241508  0.005514402550039522  0.999455391351777  1.0000
  In  In7       1.0  0.003968564401937451  0.0004951781702853865  0.9990450543546412  1.0000
  In  In8       1.0  0.00923166394850978  0.00827175852168897  0.9995909803628653  1.0000
  In  In9       1.0  0.008968564048273312  0.00799517797733515  0.9992487718984436  1.0000
  In  In10      1.0  0.003979093227291719  0.00045962506482717007  0.9994558996639774  1.0000
  In  In11      1.0  0.003968564401937451  0.005495177765285715  0.9990450543546412  1.0000
  In  In12      1.0  0.009217973487697016  0.0026748081966054115  0.9996244273160392  1.0000
  In  In13      1.0  0.006512914775352149  0.009223002613795729  0.9993488236928568  1.0000
  In  In14      1.0  0.0015815186549882508  0.00168027044734916  0.9995222934427165  1.0000
  In  In15      1.0  0.0015129146716919692  0.006723002630408456  0.9991451061676874  1.0000
  In  In16      1.0  0.006512914775352149  0.004223002578578367  0.9989413885651968  1.0000
  In  In17      1.0  0.00524073974108624  0.0023590905183196735  0.9991969393045139  1.0000
  In  In18      1.0  0.0002407395040398006  0.0048590906368428935  0.9994006569124392  1.0000
  In  In19      1.0  0.0002407395040398006  0.009859090672060256  0.9989932214978032  1.0000
  In  In20      1.0  0.005450030861952389  0.00726934810056008  0.9995528392507768  1.0000
  Ag  Ag1       1.0  0.007907807607605413  0.000904954286312946  0.9994573457669351  1.0000
  Ag  Ag2       1.0  0.003028910184879417  0.003459364795571332  0.9996583142541766  1.0000
  Ag  Ag3       1.0  0.0027407394605939903  0.008609090693783161  0.9992987981150757  1.0000
  Ag  Ag4       1.0  0.007740739716695609  0.006109090565732351  0.9990950805063741  1.0000
  Se  Se1       1.0  0.005804377329841792  0.004808234689757727  0.999173974725339  1.0000
  Se  Se2       1.0  0.0008043773024023328  0.007308234703477457  0.9993776923247242  1.0000
  Se  Se3       1.0  0.0008043773024023328  0.002308235108477128  0.9989702569100882  1.0000
  Se  Se4       1.0  0.005846629828554552  0.009800966507837018  0.9995750576949818  1.0000
  Se  Se5       1.0  0.007151227937504103  0.0014038464201107418  0.9993042107749672  1.0000
  Se  Se6       1.0  0.001852554046807532  0.004041275494699648  0.9996406255388608  1.0000
  Se  Se7       1.0  0.002151227986285363  0.008903846430937473  0.9991004932435869  1.0000
  Se  Se8       1.0  0.007314749430761713  0.006781798193868563  0.9995561675367153  1.0000
  Se  Se9       1.0  0.008330250886121358  0.003086004513064685  0.9990710617464567  1.0000
  Se  Se10      1.0  0.0033302509349026174  0.005586004488674055  0.9992747793427362  1.0000
  Se  Se11      1.0  0.003304632541202409  0.00047615972007447735  0.9996711851794187  1.0000
  Se  Se12      1.0  0.008338782118850353  0.007893348932814606  0.9994994520738397  1.0000
  Se  Se13      1.0  0.007151227937504103  0.0014038464201107418  0.9989339872333519  1.0000
  Se  Se14      1.0  0.002151227986285363  0.003903846395720112  0.9991377048296316  1.0000
  Se  Se15      1.0  0.002154997863088094  0.008889070176923627  0.9995618031447422  1.0000
  Se  Se16      1.0  0.007151227937504103  0.006403846455328104  0.9993414223610121  1.0000
  Se  Se17      1.0  0.00955405564181817  0.00022415771877981171  0.999751204812865  1.0000
  Se  Se18      1.0  0.004677101542564928  0.002640909617580329  0.9989973656067599  1.0000
  Se  Se19      1.0  0.004677101542564928  0.007640909652797691  0.99940480073442  1.0000
  Se  Se20      1.0  0.009677101493783667  0.005140909677188322  0.9992010831381403  1.0000
  Se  Se21      1.0  0.008330250886121358  0.008542665448974269  0.9990710617464567  1.0000
  Se  Se22      1.0  0.0033302509349026174  0.0010426651340403972  0.9992747793427362  1.0000
  Se  Se23      1.0  0.0033058551215484626  0.006163377675264366  0.9996706262720135  1.0000
  Se  Se24      1.0  0.00842174318937502  0.0033389403361435608  0.9994972037806312  1.0000
  Se  Se25      1.0  0.005804377329841792  0.009346307948126725  0.999173974725339  1.0000
  Se  Se26      1.0  0.0008043773024023328  0.0018463083316287631  0.9993776923247242  1.0000
  Se  Se27      1.0  0.0008043773024023328  0.006846308366846126  0.9989702569100882  1.0000
  Se  Se28      1.0  0.00588071939305653  0.0043783827535735205  0.9995803685046095  1.0000
  Se  Se29      1.0  0.009677101493783667  0.00014090964197095907  0.9992387240400743  1.0000
  Se  Se30      1.0  0.004664992204364292  0.002649219078326841  0.9994395314796922  1.0000
  Se  Se31      1.0  0.004677101542564928  0.007640909652797691  0.9990350065086938  1.0000
  Se  Se32      1.0  0.009759260722335739  0.005118048885065619  0.9996501456667147  1.0000
