data_image0
_chemical_formula_structural       COFe3Ni9Fe3Ni9Fe3Ni9Fe3Ni9
_chemical_formula_sum              "C1 O1 Fe12 Ni36"
_cell_length_a       7.889563707359119
_cell_length_b       7.056640625
_cell_length_c       104.9285888671875
_cell_angle_alpha    90.0
_cell_angle_beta     108.43494827538973
_cell_angle_gamma    90.0

_space_group_name_H-M_alt    "P 1"
_space_group_IT_number       1

loop_
  _space_group_symop_operation_xyz
  'x, y, z'

loop_
  _atom_site_type_symbol
  _atom_site_label
  _atom_site_symmetry_multiplicity
  _atom_site_fract_x
  _atom_site_fract_y
  _atom_site_fract_z
  _atom_site_occupancy
  C   C1        1.0  0.005731789722173308  0.004999999619902847  0.00011455581645560233  1.0000
  O   O1        1.0  0.005731789722173308  0.004999999619902847  0.00022891954180679334  1.0000
  Fe  Fe1       1.0  0.007499999960182327  0.0012499999049757117  0.9998216715861657  1.0000
  Fe  Fe2       1.0  0.004166666782801543  0.0012499999049757117  0.9999801859113893  1.0000
  Fe  Fe3       1.0  0.0008333332943451961  0.0012499999049757117  0.9996631574918898  1.0000
  Ni  Ni1       1.0  0.00583333324706171  0.003749999978883491  0.9999009284617941  1.0000
  Ni  Ni2       1.0  0.002500000069680926  0.003749999978883491  5.944278701767279e-05  1.0000
  Ni  Ni3       1.0  0.009166667171023844  0.003749999978883491  0.9997424147223717  1.0000
  Ni  Ni4       1.0  0.007499999960182327  0.0012499999049757117  5.944295482899739e-05  1.0000
  Ni  Ni5       1.0  0.004166666782801543  0.0012499999049757117  0.9997424145427259  1.0000
  Ni  Ni6       1.0  0.0008333332943451961  0.0012499999049757117  0.999900928860553  1.0000
  Ni  Ni7       1.0  0.009166667171023844  0.003749999978883491  0.9999801855229854  1.0000
  Ni  Ni8       1.0  0.00583333324706171  0.003749999978883491  0.9996631576611804  1.0000
  Ni  Ni9       1.0  0.002500000069680926  0.003749999978883491  0.9998216714183544  1.0000
  Fe  Fe4       1.0  0.007499999960182327  0.0012499999049757117  0.9993461294168887  1.0000
  Fe  Fe5       1.0  0.004166666782801543  0.0012499999049757117  0.9995046434580875  1.0000
  Fe  Fe6       1.0  0.0008333332943451961  0.0012499999049757117  0.9991876153226128  1.0000
  Ni  Ni10      1.0  0.00583333324706171  0.003749999978883491  0.9994253862925171  1.0000
  Ni  Ni11      1.0  0.002500000069680926  0.003749999978883491  0.9995839006177407  1.0000
  Ni  Ni12      1.0  0.009166667171023844  0.003749999978883491  0.9992668722690699  1.0000
  Ni  Ni13      1.0  0.007499999960182327  0.0012499999049757117  0.9995839005015272  1.0000
  Ni  Ni14      1.0  0.004166666782801543  0.0012499999049757117  0.999266872373449  1.0000
  Ni  Ni15      1.0  0.0008333332943451961  0.0012499999049757117  0.9994253864072513  1.0000
  Ni  Ni16      1.0  0.009166667171023844  0.003749999978883491  0.9995046433537084  1.0000
  Ni  Ni17      1.0  0.00583333324706171  0.003749999978883491  0.9991876152078787  1.0000
  Ni  Ni18      1.0  0.002500000069680926  0.003749999978883491  0.9993461292490774  1.0000
  Fe  Fe7       1.0  0.007499999960182327  0.006249999788834914  0.9998216715861657  1.0000
  Fe  Fe8       1.0  0.004166666782801543  0.006249999788834914  0.9999801859113893  1.0000
  Fe  Fe9       1.0  0.0008333332943451961  0.006249999788834914  0.9996631574918898  1.0000
  Ni  Ni19      1.0  0.00583333324706171  0.008749999598786338  0.9999009284617941  1.0000
  Ni  Ni20      1.0  0.002500000069680926  0.008749999598786338  5.944278701767279e-05  1.0000
  Ni  Ni21      1.0  0.009166667171023844  0.008749999598786338  0.9997424147223717  1.0000
  Ni  Ni22      1.0  0.007499999960182327  0.006249999788834914  5.944295482899739e-05  1.0000
  Ni  Ni23      1.0  0.004166666782801543  0.006249999788834914  0.9997424145427259  1.0000
  Ni  Ni24      1.0  0.0008333332943451961  0.006249999788834914  0.999900928860553  1.0000
  Ni  Ni25      1.0  0.009166667171023844  0.008749999598786338  0.9999801855229854  1.0000
  Ni  Ni26      1.0  0.00583333324706171  0.008749999598786338  0.9996631576611804  1.0000
  Ni  Ni27      1.0  0.002500000069680926  0.008749999598786338  0.9998216714183544  1.0000
  Fe  Fe10      1.0  0.007499999960182327  0.006249999788834914  0.9993461294168887  1.0000
  Fe  Fe11      1.0  0.004166666782801543  0.006249999788834914  0.9995046434580875  1.0000
  Fe  Fe12      1.0  0.0008333332943451961  0.006249999788834914  0.9991876153226128  1.0000
  Ni  Ni28      1.0  0.00583333324706171  0.008749999598786338  0.9994253862925171  1.0000
  Ni  Ni29      1.0  0.002500000069680926  0.008749999598786338  0.9995839006177407  1.0000
  Ni  Ni30      1.0  0.009166667171023844  0.008749999598786338  0.9992668722690699  1.0000
  Ni  Ni31      1.0  0.007499999960182327  0.006249999788834914  0.9995839005015272  1.0000
  Ni  Ni32      1.0  0.004166666782801543  0.006249999788834914  0.999266872373449  1.0000
  Ni  Ni33      1.0  0.0008333332943451961  0.006249999788834914  0.9994253864072513  1.0000
  Ni  Ni34      1.0  0.009166667171023844  0.008749999598786338  0.9995046433537084  1.0000
  Ni  Ni35      1.0  0.00583333324706171  0.008749999598786338  0.9991876152078787  1.0000
  Ni  Ni36      1.0  0.002500000069680926  0.008749999598786338  0.9993461292490774  1.0000
