data_image0
_chemical_formula_structural       CORe2Os6Re2Os6
_chemical_formula_sum              "C1 O1 Re4 Os12"
_cell_length_a       5.541821002960205
_cell_length_b       5.541821106271034
_cell_length_c       100.61188507080078
_cell_angle_alpha    90.0
_cell_angle_beta     90.0
_cell_angle_gamma    119.99999938332641

_space_group_name_H-M_alt    "P 1"
_space_group_IT_number       1

loop_
  _space_group_symop_operation_xyz
  'x, y, z'

loop_
  _atom_site_type_symbol
  _atom_site_label
  _atom_site_symmetry_multiplicity
  _atom_site_fract_x
  _atom_site_fract_y
  _atom_site_fract_z
  _atom_site_occupancy
  C   C1        1.0  0.006652878437095118  0.008326440727719063  0.00017132119134012836  1.0000
  O   O1        1.0  0.006652878437095118  0.008326440727719063  0.00029059163647939424  1.0000
  Re  Re1       1.0  0.003333333085854322  0.006666666283738383  0.9995712672198449  1.0000
  Re  Re2       1.0  0.006666666745710266  0.0033333331418691917  0.9993539406475923  1.0000
  Os  Os1       1.0  0.001673007782674849  0.003346015571387453  0.9993539406475923  1.0000
  Os  Os2       1.0  0.0066539840065961905  0.008326991833965344  0.9993539406475923  1.0000
  Os  Os3       1.0  0.0016730078273691521  0.008326991833965344  0.9993539406475923  1.0000
  Os  Os4       1.0  0.008326991765778672  0.006653983854220121  0.9995712672198449  1.0000
  Os  Os5       1.0  0.0033460158099554846  0.0016730077856937265  0.9995712672198449  1.0000
  Os  Os6       1.0  0.008326991821128994  0.0016730077856937265  0.9995712672198449  1.0000
  Re  Re3       1.0  0.003333332635854341  0.006666666283738383  0.9999975088675547  1.0000
  Re  Re4       1.0  0.0066666673659284475  0.0033333323656632107  0.9997926595809137  1.0000
  Os  Os7       1.0  0.0016745174152015556  0.003349034236446301  0.9997910831472783  1.0000
  Os  Os8       1.0  0.006650964404932154  0.008325481337126949  0.9997910831472783  1.0000
  Os  Os9       1.0  0.0016745159118078912  0.00832548366574489  0.999791083443489  1.0000
  Os  Os10      1.0  0.008312653921018822  0.0066253061480580746  0.0  1.0000
  Os  Os11      1.0  0.003374692791152469  0.0016873450863627887  0.0  1.0000
  Os  Os12      1.0  0.008312649356585374  0.001687349937650168  0.0  1.0000
