data_image0
_chemical_formula_structural       Ir4W4Ir4W4H
_chemical_formula_sum              "Ir8 W8 H1"
_cell_length_a       4.866885185241699
_cell_length_b       5.287437469254198
_cell_length_c       107.0120620727539
_cell_angle_alpha    63.5069441462469
_cell_angle_beta     90.0
_cell_angle_gamma    90.0

_space_group_name_H-M_alt    "P 1"
_space_group_IT_number       1

loop_
  _space_group_symop_operation_xyz
  'x, y, z'

loop_
  _atom_site_type_symbol
  _atom_site_label
  _atom_site_symmetry_multiplicity
  _atom_site_fract_x
  _atom_site_fract_y
  _atom_site_fract_z
  _atom_site_occupancy
  Ir  Ir1       1.0  0.00725576148144563  0.006300540545330257  0.9990629095487006  1.0000
  Ir  Ir2       1.0  0.00725576148144563  0.001300540541394145  0.9993099580144004  1.0000
  Ir  Ir3       1.0  0.003744184567546405  0.003800540592563602  0.9994334823630469  1.0000
  Ir  Ir4       1.0  0.003744184567546405  0.008800540498096912  0.9991864336210211  1.0000
  W   W1        1.0  0.0022232937581160737  0.003800540592563602  0.9991864339197135  1.0000
  W   W2        1.0  0.0022232937581160737  0.008800540498096912  0.9994334826213445  1.0000
  W   W3        1.0  0.008776652673594081  0.001300540541394145  0.999062909292572  1.0000
  W   W4        1.0  0.008776652673594081  0.006300540545330257  0.9993099582705289  1.0000
  Ir  Ir5       1.0  0.00725576148144563  0.006300540545330257  0.9995570067138623  1.0000
  Ir  Ir6       1.0  0.0073829440708353565  0.0010363772339419977  0.9998125163841077  1.0000
  Ir  Ir7       1.0  0.0037617781195311115  0.0038712516656366856  0.9999146731393742  1.0000
  Ir  Ir8       1.0  0.0037644173436878776  0.008872631178461635  0.9996795475508616  1.0000
  W   W5        1.0  0.002247806853713647  0.003828351192618035  0.9996811716130276  1.0000
  W   W6        1.0  0.0021381866247818324  0.008963623069138634  0.9999058516143537  1.0000
  W   W7        1.0  0.008776652673594081  0.001300540541394145  0.9995570070147236  1.0000
  W   W8        1.0  0.008684918201931732  0.006117309410051236  0.9998001343965643  1.0000
  H   H1        1.0  0.0012233479464092737  0.004994280734649565  0.9999975747444008  1.0000
