data_image0
_chemical_formula_structural       HCu6Rh12Si6
_chemical_formula_sum              "H1 Cu6 Rh12 Si6"
_cell_length_a       7.263805086940494
_cell_length_b       5.930871963500977
_cell_length_c       101.938720703125
_cell_angle_alpha    90.0
_cell_angle_beta     85.6522468406571
_cell_angle_gamma    114.09484231660247

_space_group_name_H-M_alt    "P 1"
_space_group_IT_number       1

loop_
  _space_group_symop_operation_xyz
  'x, y, z'

loop_
  _atom_site_type_symbol
  _atom_site_label
  _atom_site_symmetry_multiplicity
  _atom_site_fract_x
  _atom_site_fract_y
  _atom_site_fract_z
  _atom_site_occupancy
  H   H1        1.0  0.006101770578629463  0.003259218646202508  7.831072465526621e-05  1.0000
  Cu  Cu1       1.0  0.0010416666666666667  0.005729166666666667  0.9999133437839838  1.0000
  Cu  Cu2       1.0  0.007708332995081182  0.004062499893685773  0.9993911556781486  1.0000
  Cu  Cu3       1.0  0.009375  0.009895833333333335  0.9996522495255039  1.0000
  Cu  Cu4       1.0  0.005208333333333333  0.0028125000628118485  0.9997827969470992  1.0000
  Cu  Cu5       1.0  0.0018750000281876791  0.001145833370981616  0.9992606086638712  1.0000
  Cu  Cu6       1.0  0.003541666610291308  0.006979166638478989  0.9995217028058658  1.0000
  Rh  Rh1       1.0  0.0022916666384789875  0.003854166526949131  0.9997175234411024  1.0000
  Rh  Rh2       1.0  0.003958333220582616  0.009687500069248338  0.9999786172907418  1.0000
  Rh  Rh3       1.0  0.0006249999859061603  0.00802083345191011  0.9994564292994885  1.0000
  Rh  Rh4       1.0  0.003958333220582616  0.004687500132060186  0.9999786172907418  1.0000
  Rh  Rh5       1.0  0.0006249999859061603  0.0030208332006627175  0.9994564292994885  1.0000
  Rh  Rh6       1.0  0.0022916666384789875  0.008854166778196525  0.9997175234411024  1.0000
  Rh  Rh7       1.0  0.008124999887249284  0.006770833151334279  0.999848070453857  1.0000
  Rh  Rh8       1.0  0.004791666441165233  0.0051041664282922535  0.9993258821713906  1.0000
  Rh  Rh9       1.0  0.00645833344608405  0.0009375001505931311  0.9995869760187459  1.0000
  Rh  Rh10      1.0  0.004791666441165233  0.00010416649110410144  0.9993258821713906  1.0000
  Rh  Rh11      1.0  0.00645833344608405  0.005937500244810904  0.9995869760187459  1.0000
  Rh  Rh12      1.0  0.008124999887249284  0.0017708333711757471  0.999848070453857  1.0000
  Si  Si1       1.0  0.0010416666666666667  0.000729166631335002  0.9999133437839838  1.0000
  Si  Si2       1.0  0.007708332995081182  0.009062499830873925  0.9993911556781486  1.0000
  Si  Si3       1.0  0.009375  0.004895833356887777  0.9996522495255039  1.0000
  Si  Si4       1.0  0.005208333333333333  0.0078125  0.9997827969470992  1.0000
  Si  Si5       1.0  0.0018750000281876791  0.006145833347427173  0.9992606086638712  1.0000
  Si  Si6       1.0  0.003541666610291308  0.001979166603147323  0.9995217028058658  1.0000
