data_image0
_chemical_formula_structural       COAl24Ca12
_chemical_formula_sum              "C1 O1 Al24 Ca12"
_cell_length_a       8.087814194907427
_cell_length_b       9.905509107691191
_cell_length_c       102.85285949707031
_cell_angle_alpha    84.23181897385501
_cell_angle_beta     82.92944497070437
_cell_angle_gamma    65.90515808070468

_space_group_name_H-M_alt    "P 1"
_space_group_IT_number       1

loop_
  _space_group_symop_operation_xyz
  'x, y, z'

loop_
  _atom_site_type_symbol
  _atom_site_label
  _atom_site_symmetry_multiplicity
  _atom_site_fract_x
  _atom_site_fract_y
  _atom_site_fract_z
  _atom_site_occupancy
  C   C1        1.0  0.006799662446728255  0.008866374350791092  0.9999890312315627  1.0000
  O   O1        1.0  0.006799662446728255  0.008866374350791092  0.00010570241380035607  1.0000
  Al  Al1       1.0  0.006666666474858604  0.005666012695652596  0.9990476596156773  1.0000
  Al  Al2       1.0  0.007755547872148103  0.0011968705092829915  0.9997571090199358  1.0000
  Al  Al3       1.0  0.0022222223641451305  0.0034437904450059093  0.9994025665077364  1.0000
  Al  Al4       1.0  0.003888888989980589  0.00677712392412924  0.9988702063322581  1.0000
  Al  Al5       1.0  0.005000000313158065  0.002332679216529266  0.9995800197866631  1.0000
  Al  Al6       1.0  0.009444444888006458  0.004554901467175953  0.9992251131798684  1.0000
  Al  Al7       1.0  0.0002777778160109998  0.0037215680458184707  0.9989589330104854  1.0000
  Al  Al8       1.0  0.001425669062978205  0.009305383240948468  0.9996768594243807  1.0000
  Al  Al9       1.0  0.005833333278836758  0.001499346001478383  0.9993138398583143  1.0000
  Al  Al10      1.0  0.008055556081179038  0.002610457023648427  0.9991363862611745  1.0000
  Al  Al11      1.0  0.009208322296366813  0.008194924766552035  0.9998315491884712  1.0000
  Al  Al12      1.0  0.0036111111853926506  0.0003882349535200144  0.9994912931590852  1.0000
  Al  Al13      1.0  0.009444445219915935  0.00955490117009445  0.9992251131563508  1.0000
  Al  Al14      1.0  0.003888888861203763  0.001777123808597544  0.9988702063578033  1.0000
  Al  Al15      1.0  0.005000000340368567  0.007332679538367561  0.999580019760104  1.0000
  Al  Al16      1.0  0.006666666784825116  0.0006660126316975506  0.9990476596364766  1.0000
  Al  Al17      1.0  0.0076795464855646265  0.0063560059422638334  0.9997552026638606  1.0000
  Al  Al18      1.0  0.002222222333486011  0.008443789941617806  0.999402566489725  1.0000
  Al  Al19      1.0  0.0030555554586006502  0.007610457345486722  0.9991363862640855  1.0000
  Al  Al20      1.0  0.004264074700826816  0.003132789435747424  0.9998345705935759  1.0000
  Al  Al21      1.0  0.008611110892491598  0.005388234888533436  0.9994912931161883  1.0000
  Al  Al22      1.0  0.0008333332219596165  0.006499346117010078  0.9993138398577466  1.0000
  Al  Al23      1.0  0.005277778101506984  0.008721567748736968  0.9989589329642364  1.0000
  Al  Al24      1.0  0.006426750029746523  0.004266865270712813  0.9996744586659375  1.0000
  Ca  Ca1       1.0  0.00481666041102576  0.009750653949008033  0.9998066068622947  1.0000
  Ca  Ca2       1.0  0.009166666652387264  0.0019160127121571244  0.9994469298054949  1.0000
  Ca  Ca3       1.0  0.003611111421628967  0.004138234756497212  0.9990920229554198  1.0000
  Ca  Ca4       1.0  0.002500000137353712  0.001082679290799642  0.9991807496191307  1.0000
  Ca  Ca5       1.0  0.003660157720824615  0.0064608072190329895  0.9998900746556372  1.0000
  Ca  Ca6       1.0  0.008055556263998422  0.008860456652296548  0.9995356564199243  1.0000
  Ca  Ca7       1.0  0.0008333334290192671  0.000249346049960434  0.9989145696994666  1.0000
  Ca  Ca8       1.0  0.001965432290436201  0.005809226610760065  0.9996218501776716  1.0000
  Ca  Ca9       1.0  0.006388889296286078  0.008027124056165463  0.9992694764965304  1.0000
  Ca  Ca10      1.0  0.009722221992223161  0.007193790634807981  0.9990032962714424  1.0000
  Ca  Ca11      1.0  0.0007023658250026722  0.002826855316567937  0.9997250708655886  1.0000
  Ca  Ca12      1.0  0.005277777983076013  0.0049715681778546945  0.9993582031645153  1.0000
