data_image0
_chemical_formula_structural       COCa10Ga4Sb12Ca10Ga4Sb12
_chemical_formula_sum              "C1 O1 Ca20 Ga8 Sb24"
_cell_length_a       14.2681245803833
_cell_length_b       12.305270195007324
_cell_length_c       101.8307876586914
_cell_angle_alpha    90.0
_cell_angle_beta     90.0
_cell_angle_gamma    90.0

_space_group_name_H-M_alt    "P 1"
_space_group_IT_number       1

loop_
  _space_group_symop_operation_xyz
  'x, y, z'

loop_
  _atom_site_type_symbol
  _atom_site_label
  _atom_site_symmetry_multiplicity
  _atom_site_fract_x
  _atom_site_fract_y
  _atom_site_fract_z
  _atom_site_occupancy
  C   C1        1.0  0.0055026354856721835  0.006872048484458395  8.085869733385329e-05  1.0000
  O   O1        1.0  0.0055026354856721835  0.006872048484458395  0.00019870090389981693  1.0000
  Ca  Ca1       1.0  0.0055026354856721835  0.006872048484458395  0.9999107675674946  1.0000
  Ca  Ca2       1.0  0.005591492857230225  0.0032117651768451562  0.9999106815239416  1.0000
  Ca  Ca3       1.0  0.0005025947592680988  0.00821107520949955  0.9999107207410712  1.0000
  Ca  Ca4       1.0  0.0005913919818032133  0.0018717106514905706  0.9999107072784745  1.0000
  Ca  Ca5       1.0  0.005546352696302098  4.290844930376135e-05  0.9999245772650971  1.0000
  Ca  Ca6       1.0  0.0005468141799711527  0.005040952141907033  0.9999245532665552  1.0000
  Ca  Ca7       1.0  0.0030395617821897193  0.009189682789931744  0.9999553574438842  1.0000
  Ca  Ca8       1.0  0.008055043836519137  0.0008945645455835851  0.9999548768877136  1.0000
  Ca  Ca9       1.0  0.0030550259882838374  0.004189539012928843  0.9999548833263469  1.0000
  Ca  Ca10      1.0  0.008040303637980422  0.005894803231393044  0.9999553293480301  1.0000
  Ga  Ga1       1.0  0.007924175750321848  0.0033297766336283833  0.9997499960665804  1.0000
  Ga  Ga2       1.0  0.003165986869263207  0.00675386749360285  0.9997495822380633  1.0000
  Ga  Ga3       1.0  0.008166000540029741  0.008329075162185012  0.9997494282961963  1.0000
  Ga  Ga4       1.0  0.0029237020358075243  0.001753600350288394  0.9997499714827082  1.0000
  Sb  Sb1       1.0  0.001618318110511828  0.009958319999882198  0.9997423469703117  1.0000
  Sb  Sb2       1.0  0.009477892308932437  0.000122560655745997  0.9997419331417945  1.0000
  Sb  Sb3       1.0  0.004477801093901944  0.004961015615851215  0.9997419214351887  1.0000
  Sb  Sb4       1.0  0.006618954876853902  0.005124413765709415  0.9997422726333645  1.0000
  Sb  Sb5       1.0  0.0037832209339409843  0.001712517703474406  0.9999997769891583  1.0000
  Sb  Sb6       1.0  0.007311896163599836  0.008366596079783238  0.9999999543442372  1.0000
  Sb  Sb7       1.0  0.0023122989342508524  0.006715761683455125  0.0  1.0000
  Sb  Sb8       1.0  0.008783453921817702  0.003371305821079281  0.9999997927930763  1.0000
  Sb  Sb9       1.0  0.001615790350271064  0.003503151258163695  0.9997391522375726  1.0000
  Sb  Sb10      1.0  0.009478710048443263  0.00657824230425751  0.9997389860037693  1.0000
  Sb  Sb11      1.0  0.004479370255606948  0.008505789002466168  0.9997390386834957  1.0000
  Sb  Sb12      1.0  0.006615587837028989  0.0015806444143638256  0.9997392529143829  1.0000
  Ca  Ca11      1.0  0.00537387127718187  0.006760086366662789  0.9995064857874313  1.0000
  Ca  Ca12      1.0  0.005708610282802604  0.0033232743964761403  0.9995064857874313  1.0000
  Ca  Ca13      1.0  0.00037387095473349983  0.008323274674996401  0.9995064857874313  1.0000
  Ca  Ca14      1.0  0.0007086099929907087  0.0017600862395122348  0.9995064857874313  1.0000
  Ca  Ca15      1.0  0.0055412405189004385  4.168024968860708e-05  0.9995064857874313  1.0000
  Ca  Ca16      1.0  0.0005412404575438669  0.0050416802301997575  0.9995064857874313  1.0000
  Ca  Ca17      1.0  0.003069235909381144  0.009126160794949333  0.9995064857874313  1.0000
  Ca  Ca18      1.0  0.008013245128419734  0.0009571995897653268  0.9995064857874313  1.0000
  Ca  Ca19      1.0  0.003013245034426687  0.004126161121907902  0.9995064857874313  1.0000
  Ca  Ca20      1.0  0.00806923626446599  0.005957199641231027  0.9995064857874313  1.0000
  Ga  Ga5       1.0  0.007657021923122142  0.0033438700616081007  0.9992832106691758  1.0000
  Ga  Ga6       1.0  0.0034254591146787357  0.006739490398791414  0.9992832106691758  1.0000
  Ga  Ga7       1.0  0.008425458947579985  0.008343870037388948  0.9992832106691758  1.0000
  Ga  Ga8       1.0  0.002657022090220893  0.0017394905743802745  0.9992832106691758  1.0000
  Sb  Sb13      1.0  0.0015409961662199447  0.009782120816606295  0.9992832106691758  1.0000
  Sb  Sb14      1.0  0.009541484871580934  0.0003012395491871529  0.9992832106691758  1.0000
  Sb  Sb15      1.0  0.004541485038679684  0.0047821211435648625  0.9992832106691758  1.0000
  Sb  Sb16      1.0  0.00654099652130479  0.005301239619574067  0.9992832106691758  1.0000
  Sb  Sb17      1.0  0.0037710334299097268  0.0016681205141768846  0.9995064857874313  1.0000
  Sb  Sb18      1.0  0.007311447607891151  0.008415240248962045  0.9995064857874313  1.0000
  Sb  Sb19      1.0  0.002311447774989902  0.006668120792697146  0.9995064857874313  1.0000
  Sb  Sb20      1.0  0.008771033262810975  0.003415239970441783  0.9995064857874313  1.0000
  Sb  Sb21      1.0  0.0014563519024577084  0.003492842375609073  0.9992832106691758  1.0000
  Sb  Sb22      1.0  0.009626129788072663  0.006590518387529856  0.9992832106691758  1.0000
  Sb  Sb23      1.0  0.00462612943298782  0.008492842654129334  0.9992832106691758  1.0000
  Sb  Sb24      1.0  0.006456352126996654  0.001590518260379302  0.9992832106691758  1.0000
