data_image0
_chemical_formula_structural       COCa3In3Ca3In3
_chemical_formula_sum              "C1 O1 Ca6 In6"
_cell_length_a       5.550899028778076
_cell_length_b       5.550899383314188
_cell_length_c       103.99217987060547
_cell_angle_alpha    90.0
_cell_angle_beta     90.0
_cell_angle_gamma    60.00000211280358

_space_group_name_H-M_alt    "P 1"
_space_group_IT_number       1

loop_
  _space_group_symop_operation_xyz
  'x, y, z'

loop_
  _atom_site_type_symbol
  _atom_site_label
  _atom_site_symmetry_multiplicity
  _atom_site_fract_x
  _atom_site_fract_y
  _atom_site_fract_z
  _atom_site_occupancy
  C   C1        1.0  0.005000010268582865  0.00499999578434536  0.00011857401689142915  1.0000
  O   O1        1.0  0.005000010268582865  0.00499999578434536  0.00023396754295873883  1.0000
  Ca  Ca1       1.0  0.008333331748489114  0.008333333281670898  0.9989176343803399  1.0000
  Ca  Ca2       1.0  0.001666664993285967  0.0016666666175873541  0.9993534645063047  1.0000
  Ca  Ca3       1.0  0.0049999982645201  0.0049999996590279336  0.9991355493000311  1.0000
  In  In1       1.0  0.008333331748489114  0.008333333281670898  0.9992445067598767  1.0000
  In  In2       1.0  0.001666664993285967  0.0016666666175873541  0.9990265918401855  1.0000
  In  In3       1.0  0.0049999982645201  0.0049999996590279336  0.9988086769204942  1.0000
  Ca  Ca4       1.0  0.008333331748489114  0.008333333281670898  0.999571379425996  1.0000
  Ca  Ca5       1.0  0.001666684311927601  0.0016666712672064425  0.0  1.0000
  Ca  Ca6       1.0  0.0050000201425672705  0.004999958587392653  0.9997922507291205  1.0000
  In  In4       1.0  0.008333335650990427  0.008333320107750149  0.9999040361835104  1.0000
  In  In5       1.0  0.001666664993285967  0.0016666666175873541  0.9996803368858417  1.0000
  In  In6       1.0  0.0049999982645201  0.0049999996590279336  0.9994624219661504  1.0000
