data_image0
_chemical_formula_structural       COIn8Pt4
_chemical_formula_sum              "C1 O1 In8 Pt4"
_cell_length_a       4.616677761077881
_cell_length_b       4.616677761077881
_cell_length_c       30.826189041137695
_cell_angle_alpha    90.0
_cell_angle_beta     90.0
_cell_angle_gamma    90.0

_space_group_name_H-M_alt    "P 1"
_space_group_IT_number       1

loop_
  _space_group_symop_operation_xyz
  'x, y, z'

loop_
  _atom_site_type_symbol
  _atom_site_label
  _atom_site_symmetry_multiplicity
  _atom_site_fract_x
  _atom_site_fract_y
  _atom_site_fract_z
  _atom_site_occupancy
  C   C1        1.0  0.0025  0.007500000000000001  0.00011164442626165239  1.0000
  O   O1        1.0  0.0025  0.007500000000000001  0.0005009236362333628  1.0000
  In  In1       1.0  0.007500000000000001  0.0025  0.9963650868991952  1.0000
  In  In2       1.0  0.0025  0.007500000000000001  0.9963650868991952  1.0000
  In  In3       1.0  0.0025  0.007500000000000001  0.9974240840234173  1.0000
  In  In4       1.0  0.007500000000000001  0.0025  0.9974240840234173  1.0000
  In  In5       1.0  0.007500000000000001  0.0025  0.9984830811476394  1.0000
  In  In6       1.0  0.0025  0.007500000000000001  0.9984830811476394  1.0000
  In  In7       1.0  0.0025  0.007500000000000001  0.9995497678445614  1.0000
  In  In8       1.0  0.007500000000000001  0.002500000201730037  0.9995497678445614  1.0000
  Pt  Pt1       1.0  0.0025  0.0025  0.9979535827063766  1.0000
  Pt  Pt2       1.0  0.007500000000000001  0.007500000000000001  0.9968945855821545  1.0000
  Pt  Pt3       1.0  0.0025  0.002500000201730037  0.0  1.0000
  Pt  Pt4       1.0  0.007500000000000001  0.007500000000000001  0.9990125795889022  1.0000
