data_image0
_chemical_formula_structural       Cu9Pt9H
_chemical_formula_sum              "Cu9 Pt9 H1"
_cell_length_a       4.606788322559696
_cell_length_b       7.201792751434552
_cell_length_c       40.090850830078125
_cell_angle_alpha    92.58937228265836
_cell_angle_beta     94.04995989813047
_cell_angle_gamma    72.94365522560172

_space_group_name_H-M_alt    "P 1"
_space_group_IT_number       1

loop_
  _space_group_symop_operation_xyz
  'x, y, z'

loop_
  _atom_site_type_symbol
  _atom_site_label
  _atom_site_symmetry_multiplicity
  _atom_site_fract_x
  _atom_site_fract_y
  _atom_site_fract_z
  _atom_site_occupancy
  Cu  Cu1       1.0  0.009975568325979794  0.005479048286179509  0.9996777283669056  1.0000
  Cu  Cu2       1.0  0.0033556133541825634  0.0026905451889722007  8.622539356631286e-05  1.0000
  Cu  Cu3       1.0  0.006769119914389848  0.00909727789627325  0.9998969570252103  1.0000
  Cu  Cu4       1.0  2.4431835719559874e-05  0.004557867239627127  0.9989865684097398  1.0000
  Cu  Cu5       1.0  0.0033577650085697807  0.0018305943977080703  0.9994387103951937  1.0000
  Cu  Cu6       1.0  0.006691098303187522  0.008194230848436282  0.999212639082094  1.0000
  Cu  Cu7       1.0  2.443191254179414e-05  0.0036487763374248388  0.9983083552430463  1.0000
  Cu  Cu8       1.0  0.0033577651867266094  0.000921503495505782  0.9987604972293228  1.0000
  Cu  Cu9       1.0  0.006691099010038809  0.0072851396756096086  0.9985344262900022  1.0000
  Pt  Pt1       1.0  0.004925347695394108  0.005943244879370977  0.9999933999850483  1.0000
  Pt  Pt2       1.0  0.008285035953627238  0.002359324216793115  0.9997857794329147  1.0000
  Pt  Pt3       1.0  0.001804512329710913  0.009533042691693685  0.00019528639684119248  1.0000
  Pt  Pt4       1.0  0.005024431968699969  0.005012412826040463  0.9993256749286722  1.0000
  Pt  Pt5       1.0  0.0083577654430631  0.0013760488112947342  0.9990996037470601  1.0000
  Pt  Pt6       1.0  0.0016567848195539563  0.008667447893591427  0.9995457376205958  1.0000
  Pt  Pt7       1.0  0.0050244318648745  0.004103321653213791  0.9986474617583165  1.0000
  Pt  Pt8       1.0  0.008357765200462039  0.0004669579429204938  0.9984213909497338  1.0000
  Pt  Pt9       1.0  0.0016910985755454909  0.007739685262022945  0.9988735329381359  1.0000
  H   H1        1.0  0.009130302201481555  0.0039191861161741205  0.00010590411776569338  1.0000
