data_image0
_chemical_formula_structural       Si18W9H
_chemical_formula_sum              "Si18 W9 H1"
_cell_length_a       4.624766008566862
_cell_length_b       11.40048536772695
_cell_length_c       37.55171585083008
_cell_angle_alpha    91.01628727510246
_cell_angle_beta     73.43788880762746
_cell_angle_gamma    66.06725807970612

_space_group_name_H-M_alt    "P 1"
_space_group_IT_number       1

loop_
  _space_group_symop_operation_xyz
  'x, y, z'

loop_
  _atom_site_type_symbol
  _atom_site_label
  _atom_site_symmetry_multiplicity
  _atom_site_fract_x
  _atom_site_fract_y
  _atom_site_fract_z
  _atom_site_occupancy
  Si  Si1       1.0  0.008415233015135677  0.008862586383204037  0.9984509318888264  1.0000
  Si  Si2       1.0  0.008428746995908018  0.0022617509788298473  0.9991719406235061  1.0000
  Si  Si3       1.0  0.008384718707417119  0.005495628784047106  0.9998480852780992  1.0000
  Si  Si4       1.0  0.0014500478652207341  0.006228933322014509  0.9993146617631611  1.0000
  Si  Si5       1.0  0.0016877591026530265  0.009428277060147221  0.9978530548589811  1.0000
  Si  Si6       1.0  0.0016877596009539989  0.0027616098243754884  0.9985731347305631  1.0000
  Si  Si7       1.0  0.006778970612926498  0.005508983823124831  0.9984465533610358  1.0000
  Si  Si8       1.0  0.006695730066855691  0.008904937204831246  0.9991763085784092  1.0000
  Si  Si9       1.0  0.005489856836406121  0.0023896605376443206  0.9998577469600988  1.0000
  Si  Si10      1.0  0.0016877589373857917  0.006620095149659893  0.9979665002797  1.0000
  Si  Si11      1.0  0.001687758876759227  0.009953428405826439  0.9986865798838765  1.0000
  Si  Si12      1.0  0.0016013712134516224  0.0033089269683712163  0.9994382859061726  1.0000
  Si  Si13      1.0  0.00841523345908707  0.00494329386962029  0.9990444308525783  1.0000
  Si  Si14      1.0  0.008279077679876418  0.008375660088568337  0.9997544509866815  1.0000
  Si  Si15      1.0  0.008415233918331308  0.0016099602517344238  0.9983243508356429  1.0000
  Si  Si16      1.0  0.0033240216745175667  0.007751475780107618  0.9989309855238612  1.0000
  Si  Si17      1.0  0.0032605749830995037  0.0010255458975403458  0.9996681515481807  1.0000
  Si  Si18      1.0  0.0033240221337618035  0.0044181421622217516  0.9982109055069257  1.0000
  W   W1        1.0  5.1495975647031204e-05  0.006630229801616224  0.9986887693213675  1.0000
  W   W2        1.0  0.009948502973942135  4.6571851559466623e-05  0.9993957061880574  1.0000
  W   W3        1.0  5.149685507877043e-05  0.003296896183730358  0.9979686892896807  1.0000
  W   W4        1.0  0.00504264445851086  0.007250976329643187  0.9995059528672012  1.0000
  W   W5        1.0  0.0050514970498768946  0.0005191183647567686  0.9980887027732378  1.0000
  W   W6        1.0  0.005051496319926784  0.003852451846997889  0.9988087827989464  1.0000
  W   W7        1.0  0.0050514955776430615  0.007741341128151287  0.9982087162986136  1.0000
  W   W8        1.0  0.005051496916319037  0.0010746738923795543  0.998928796140693  1.0000
  W   W9        1.0  0.004959130328035508  0.004492654533902256  0.9996100850320558  1.0000
  H   H1        1.0  0.0024955737481598293  0.00864877409212733  0.9998502785929431  1.0000
