data_image0
_chemical_formula_structural       CONa8Pt16Se24
_chemical_formula_sum              "C1 O1 Na8 Pt16 Se24"
_cell_length_a       13.117209434509277
_cell_length_b       11.71506118774414
_cell_length_c       100.29290008544922
_cell_angle_alpha    90.0
_cell_angle_beta     90.0
_cell_angle_gamma    90.0

_space_group_name_H-M_alt    "P 1"
_space_group_IT_number       1

loop_
  _space_group_symop_operation_xyz
  'x, y, z'

loop_
  _atom_site_type_symbol
  _atom_site_label
  _atom_site_symmetry_multiplicity
  _atom_site_fract_x
  _atom_site_fract_y
  _atom_site_fract_z
  _atom_site_occupancy
  C   C1        1.0  0.004367297936891572  0.005246529628629846  0.00013577330319344334  1.0000
  O   O1        1.0  0.004367297936891572  0.005246529628629846  0.00025542249774087753  1.0000
  Na  Na1       1.0  0.0036811315496447644  0.006861447098989168  0.9993992323880684  1.0000
  Na  Na2       1.0  0.008770943925289022  0.006648635715571927  0.9998140476814622  1.0000
  Na  Na3       1.0  0.007014465076098244  0.001861447404261042  0.9993992323880684  1.0000
  Na  Na4       1.0  0.0019261157275611113  0.0016484455439138884  0.9998139531868517  1.0000
  Na  Na5       1.0  0.005346164317635001  0.0032084888049070137  0.999814652684691  1.0000
  Na  Na6       1.0  0.00034779834269152665  0.00308999148505161  0.9993992323880684  1.0000
  Na  Na7       1.0  0.005351391057590264  0.008206825403903183  0.9998148470226633  1.0000
  Na  Na8       1.0  0.00034779834269152665  0.008089991497771272  0.9993992323880684  1.0000
  Pt  Pt1       1.0  0.008686515773399201  0.009934904614139607  0.9993992323880684  1.0000
  Pt  Pt2       1.0  0.0036734501958320077  0.009971097138772199  0.999772075433885  1.0000
  Pt  Pt3       1.0  0.004517157182295457  0.004934904601419946  0.9995886197937012  1.0000
  Pt  Pt4       1.0  0.00968455728065314  0.004672460781111763  0.9999657448122721  1.0000
  Pt  Pt5       1.0  0.004367297936891572  0.005246529628629846  0.9999630740023404  1.0000
  Pt  Pt6       1.0  0.00951715732997557  0.004934904601419946  0.9995874002783519  1.0000
  Pt  Pt7       1.0  0.006178439443447551  0.009934904614139607  0.9995886197937012  1.0000
  Pt  Pt8       1.0  0.0010124843381833482  0.00966843851889576  0.9999653169121495  1.0000
  Pt  Pt9       1.0  0.006330711270677124  0.0002482794040845743  0.9999630442870541  1.0000
  Pt  Pt10      1.0  0.0011784396507677076  0.009934904614139607  0.9995874002783519  1.0000
  Pt  Pt11      1.0  0.0020090809943439153  0.004934904601419946  0.9993992323880684  1.0000
  Pt  Pt12      1.0  0.007023845035196397  0.004972325527355128  0.9997720590904775  1.0000
  Pt  Pt13      1.0  0.007014465076098244  0.00500737105651828  0.9993992323880684  1.0000
  Pt  Pt14      1.0  0.0020200235226245206  0.004991066358514383  0.9997680754591977  1.0000
  Pt  Pt15      1.0  0.0036811315496447644  7.370999702135103e-06  0.9993992323880684  1.0000
  Pt  Pt16      1.0  0.008675515877075183  0.009992628981640706  0.9997679149966517  1.0000
  Se  Se1       1.0  0.00533174335472214  0.003899499993670697  0.9993992323880684  1.0000
  Se  Se2       1.0  0.0003787484376125777  0.003829515780500405  0.9997673111820343  1.0000
  Se  Se3       1.0  0.007839770836636823  0.008899500006390358  0.9995861914605056  1.0000
  Se  Se4       1.0  0.0027541548481681234  0.009167171289554688  0.9999688708603897  1.0000
  Se  Se5       1.0  0.007941867209896826  0.009227831990896874  0.9999914009904538  1.0000
  Se  Se6       1.0  0.002839770688956712  0.008899500006390358  0.9995898286115474  1.0000
  Se  Se7       1.0  0.0028558260731063995  0.003899499993670697  0.9995861914605056  1.0000
  Se  Se8       1.0  0.007942467586351152  0.0041694833932914436  0.999969008739318  1.0000
  Se  Se9       1.0  0.0019459010285333609  0.0010226685697552747  0.9993992323880684  1.0000
  Se  Se10      1.0  0.00700312835551934  0.0010865696843446082  0.9997633094244298  1.0000
  Se  Se11      1.0  0.006067624831590145  0.006008600795929252  0.9999519854461089  1.0000
  Se  Se12      1.0  0.0011468496678624304  0.006022668741470704  0.9995802439459549  1.0000
  Se  Se13      1.0  0.006146849531542328  0.006022668741470704  0.9995957761260981  1.0000
  Se  Se14      1.0  0.0013095519709851204  0.005633813427965444  0.0  1.0000
  Se  Se15      1.0  0.004631223880613835  0.001008878707811834  0.9999518196348114  1.0000
  Se  Se16      1.0  0.009548747241880793  0.0010226685697552747  0.9995802439459549  1.0000
  Se  Se17      1.0  0.004548747094200682  0.0010226685697552747  0.9995957761260981  1.0000
  Se  Se18      1.0  0.009390876066413992  0.0006336521140392744  0.99999977891827  1.0000
  Se  Se19      1.0  0.008749695597209648  0.006022668741470704  0.9993992323880684  1.0000
  Se  Se20      1.0  0.00369298855861739  0.006083157727383588  0.9997635771591593  1.0000
  Se  Se21      1.0  0.005363853555021084  0.008899500006390358  0.9993992323880684  1.0000
  Se  Se22      1.0  0.0003154433697073538  0.008829164730564602  0.9997669554900575  1.0000
  Se  Se23      1.0  0.002756842342201847  0.004223898104888485  0.9999912946097288  1.0000
  Se  Se24      1.0  0.007855825936786296  0.003899499993670697  0.9995898286115474  1.0000
