data_image0
_chemical_formula_structural       HSb32Ir16
_chemical_formula_sum              "H1 Sb32 Ir16"
_cell_length_a       15.015081405118165
_cell_length_b       11.426165614797604
_cell_length_c       109.5273666381836
_cell_angle_alpha    89.30089107753633
_cell_angle_beta     92.80247840721542
_cell_angle_gamma    41.15350684922301

_space_group_name_H-M_alt    "P 1"
_space_group_IT_number       1

loop_
  _space_group_symop_operation_xyz
  'x, y, z'

loop_
  _atom_site_type_symbol
  _atom_site_label
  _atom_site_symmetry_multiplicity
  _atom_site_fract_x
  _atom_site_fract_y
  _atom_site_fract_z
  _atom_site_occupancy
  H   H1        1.0  0.006742657871906568  0.004261629566654681  2.4354655221361577e-05  1.0000
  Sb  Sb1       1.0  0.0068457979723752695  0.009399709277923989  0.9993515446334281  1.0000
  Sb  Sb2       1.0  0.0043457976752386135  0.006899708999708875  0.9995771007100632  1.0000
  Sb  Sb3       1.0  0.009784743042933008  0.001253958866936674  3.011956434598529e-05  1.0000
  Sb  Sb4       1.0  0.0018266010229205539  0.004441673496980205  0.9998005689187651  1.0000
  Sb  Sb5       1.0  0.008235356378591355  0.0032124895617663624  0.9996772876436069  1.0000
  Sb  Sb6       1.0  0.005734452905580271  0.0006494780935843466  0.9999179301364113  1.0000
  Sb  Sb7       1.0  0.0007353564310091665  0.005712489591575124  0.9994517316146256  1.0000
  Sb  Sb8       1.0  0.0032353567653168065  0.008212489372977534  0.9992261749946735  1.0000
  Sb  Sb9       1.0  0.007997824805611847  0.0058244811113240735  0.999892746187566  1.0000
  Sb  Sb10      1.0  0.005635650501340211  0.0033121956485629915  0.9992171791222824  1.0000
  Sb  Sb11      1.0  0.000635650248479375  0.008312195708180516  0.9996682923178367  1.0000
  Sb  Sb12      1.0  0.003135650381211047  0.0008121954945510536  0.9994427357441444  1.0000
  Sb  Sb13      1.0  0.0067460914112620176  0.0019994152752943325  0.9995681053818708  1.0000
  Sb  Sb14      1.0  0.004273055636793204  0.00942295116984527  0.9997912527676784  1.0000
  Sb  Sb15      1.0  0.009246091993969974  0.0044994150566967425  0.9993425487635836  1.0000
  Sb  Sb16      1.0  0.0016568737121310463  0.007367844680864052  1.6359562795965186e-05  1.0000
  Sb  Sb17      1.0  0.008119682589510183  0.008647474232828975  0.9996899575703863  1.0000
  Sb  Sb18      1.0  0.005608990070169265  0.006124586786963278  0.9999261357736136  1.0000
  Sb  Sb19      1.0  0.0006196821205588833  0.0011474743918090417  0.9994644010411647  1.0000
  Sb  Sb20      1.0  0.0031196820636805547  0.0036474744216178035  0.9992388444182744  1.0000
  Sb  Sb21      1.0  0.004486222637042038  0.0014399734923395773  0.9995666645799438  1.0000
  Sb  Sb22      1.0  0.001926599235593362  0.009045065490884019  0.9997934846893031  1.0000
  Sb  Sb23      1.0  0.0069862230055715195  0.003939973646351515  0.9993411079597467  1.0000
  Sb  Sb24      1.0  0.00945458430548382  0.0063094473164546526  2.272809784995253e-05  1.0000
  Sb  Sb25      1.0  0.0068617659701126175  0.006564430475060415  0.999555435412798  1.0000
  Sb  Sb26      1.0  0.004361766169776598  0.004064430196845301  0.9997809920369617  1.0000
  Sb  Sb27      1.0  0.009361766056019941  0.009064430256462825  0.9993298793353795  1.0000
  Sb  Sb28      1.0  0.0015842729569895807  0.002183855501238073  1.3283858150798733e-05  1.0000
  Sb  Sb29      1.0  0.0004952253335003004  0.003771931220517941  0.999678728495881  1.0000
  Sb  Sb30      1.0  0.00795601799079229  0.0012854673496439672  0.9999102480902178  1.0000
  Sb  Sb31      1.0  0.0029952256678079403  0.006271931001920352  0.9994531718759289  1.0000
  Sb  Sb32      1.0  0.005495225753715262  0.008771930783322762  0.9992276157985103  1.0000
  Ir  Ir1       1.0  0.008578907786497067  0.006614657742628062  0.9995236319122379  1.0000
  Ir  Ir2       1.0  0.006078907986161046  0.004114657464412948  0.9997491885364015  1.0000
  Ir  Ir3       1.0  0.0010789079445295442  0.009114658020843176  0.9992980753394497  1.0000
  Ir  Ir4       1.0  0.0035141678509490195  0.0016124104749469037  0.9999497865063717  1.0000
  Ir  Ir5       1.0  0.0001339199963128814  0.0024062273771367076  0.9998357724202375  1.0000
  Ir  Ir6       1.0  0.007724566668732539  0.00964515959436427  3.949847553922074e-05  1.0000
  Ir  Ir7       1.0  0.0026427225000216848  0.0048570645605962685  0.9996080969113419  1.0000
  Ir  Ir8       1.0  0.005142723082729643  0.0073570643419986785  0.9993825408372533  1.0000
  Ir  Ir9       1.0  0.006402539493953164  0.008597247462074032  0.9997217610617402  1.0000
  Ir  Ir10      1.0  0.003808162307280628  0.006191700718341886  0.9999307107323687  1.0000
  Ir  Ir11      1.0  0.008902540443278614  0.0010972471242413947  0.9994962044936794  1.0000
  Ir  Ir12      1.0  0.0014025399988957892  0.0035972471540501568  0.9992706479171696  1.0000
  Ir  Ir13      1.0  0.004838725590649817  0.0028548403062731878  0.9994117395426209  1.0000
  Ir  Ir14      1.0  0.0023387253812796214  0.00035484030751521976  0.9996372961636871  1.0000
  Ir  Ir15      1.0  0.007338725390985837  0.005354840584488302  0.9991861831905565  1.0000
  Ir  Ir16      1.0  0.009866079772779611  0.007798131679785913  0.9998663587206751  1.0000
