data_image0
_chemical_formula_structural       Ni6Sn8H
_chemical_formula_sum              "Ni6 Sn8 H1"
_cell_length_a       5.321214426346792
_cell_length_b       6.534831997138097
_cell_length_c       38.62146759033203
_cell_angle_alpha    87.64525038729688
_cell_angle_beta     86.21380000546151
_cell_angle_gamma    104.39494916371551

_space_group_name_H-M_alt    "P 1"
_space_group_IT_number       1

loop_
  _space_group_symop_operation_xyz
  'x, y, z'

loop_
  _atom_site_type_symbol
  _atom_site_label
  _atom_site_symmetry_multiplicity
  _atom_site_fract_x
  _atom_site_fract_y
  _atom_site_fract_z
  _atom_site_occupancy
  Ni  Ni1       1.0  0.005267645561648434  0.0012118730059174684  0.9991954379690885  1.0000
  Ni  Ni2       1.0  0.009612814190010501  0.007489498085129858  0.998399085648063  1.0000
  Ni  Ni3       1.0  0.002172476995884165  0.007434248339417006  0.9989762106771594  1.0000
  Ni  Ni4       1.0  0.003989652202102225  0.008452252423218036  0.00013042385879215074  1.0000
  Ni  Ni5       1.0  0.008362813669049299  0.004989497943628626  0.9994146652092867  1.0000
  Ni  Ni6       1.0  0.00096183877104096  0.005085392149534276  0.9999543008712043  1.0000
  Sn  Sn1       1.0  0.002856732117381864  0.0012066208781492892  0.9986148018697427  1.0000
  Sn  Sn2       1.0  0.0089285590235113  0.0037171253488854383  0.9987604945112778  1.0000
  Sn  Sn3       1.0  0.004425024843001446  0.006718867045102593  0.9983543637321575  1.0000
  Sn  Sn4       1.0  0.007360265959198025  0.008204879379444271  0.9990209325965557  1.0000
  Sn  Sn5       1.0  0.0014500651139385027  0.008793379466759964  0.9996131874518037  1.0000
  Sn  Sn6       1.0  0.0075993460346004005  0.0013045263914136902  0.9998078437683992  1.0000
  Sn  Sn7       1.0  0.003175024848250795  0.004218866903601361  0.9993699429027679  1.0000
  Sn  Sn8       1.0  0.006084947443733966  0.0054557468621818745  7.84791933627278e-05  1.0000
  H   H1        1.0  0.00038718567646631077  0.0027616966475075256  0.9999772782516145  1.0000
