data_image0
_chemical_formula_structural       CORe12Pd4Re12Pd4
_chemical_formula_sum              "C1 O1 Re24 Pd8"
_cell_length_a       5.581286907196045
_cell_length_b       12.014848642907767
_cell_length_c       101.11146545410156
_cell_angle_alpha    68.28950947876777
_cell_angle_beta     90.0
_cell_angle_gamma    62.320033697289944

_space_group_name_H-M_alt    "P 1"
_space_group_IT_number       1

loop_
  _space_group_symop_operation_xyz
  'x, y, z'

loop_
  _atom_site_type_symbol
  _atom_site_label
  _atom_site_symmetry_multiplicity
  _atom_site_fract_x
  _atom_site_fract_y
  _atom_site_fract_z
  _atom_site_occupancy
  C   C1        1.0  0.008902791387089812  0.005765681200711082  0.9996819399001604  1.0000
  O   O1        1.0  0.008902791387089812  0.005765681200711082  0.9998006210434393  1.0000
  Re  Re1       1.0  0.0012585135793558707  0.0008055839560626971  0.9990932194152319  1.0000
  Re  Re2       1.0  0.0012585136119730208  0.005805583936794763  0.9988734374565775  1.0000
  Re  Re3       1.0  0.001258513453641522  0.003409958106269718  0.9989787405244305  1.0000
  Re  Re4       1.0  0.0012585137752776892  0.008409957797982768  0.9991985221673662  1.0000
  Re  Re5       1.0  0.006467261962071622  0.0008055839560626971  0.9990932194152319  1.0000
  Re  Re6       1.0  0.006467262328419179  0.005805583936794763  0.9988734374565775  1.0000
  Re  Re7       1.0  0.008064346343888772  0.00420849992132517  0.999163421301902  1.0000
  Re  Re8       1.0  0.008064345561077156  0.009208500383755596  0.998943639322074  1.0000
  Re  Re9       1.0  0.008064345705802636  0.0016041258674578214  0.9988383363048358  1.0000
  Re  Re10      1.0  0.00806434588638774  0.006604125366491527  0.9990581182509881  1.0000
  Re  Re11      1.0  0.0028555976274426144  0.00420849992132517  0.999163421301902  1.0000
  Re  Re12      1.0  0.0028555961771701845  0.009208500383755596  0.998943639322074  1.0000
  Pd  Pd1       1.0  0.002994762822886421  0.0016737087370248189  0.9988352776929516  1.0000
  Pd  Pd2       1.0  0.0029947627591639  0.006673708814096556  0.9990550596136953  1.0000
  Pd  Pd3       1.0  0.006328096143878392  0.0033403754293820647  0.9989817991278452  1.0000
  Pd  Pd4       1.0  0.006328096131784152  0.008340375121095114  0.9992015807707809  1.0000
  Re  Re13      1.0  0.0011781612048007413  0.0007915006374449276  0.9995243368107853  1.0000
  Re  Re14      1.0  0.0012585136119730208  0.005805583936794763  0.9993130010454633  1.0000
  Re  Re15      1.0  0.0013552192569448998  0.0033132669871042335  0.9994340765639947  1.0000
  Re  Re16      1.0  0.001097208182024098  0.008571257384089039  0.9996232384513469  1.0000
  Re  Re17      1.0  0.006575769110994049  0.0007914998185577153  0.9995243368467807  1.0000
  Re  Re18      1.0  0.006467262328419179  0.005805583936794763  0.9993130010454633  1.0000
  Re  Re19      1.0  0.008081124498192581  0.004293553593466684  0.9995850948351742  1.0000
  Re  Re20      1.0  0.008083095869974312  0.009169157573845822  0.9993913760424455  1.0000
  Re  Re21      1.0  0.008064345705802636  0.0016041258674578214  0.9992779001884687  1.0000
  Re  Re22      1.0  0.008154356991539402  0.006514115596261491  0.9994934013390656  1.0000
  Re  Re23      1.0  0.0026687257325066047  0.00429355667633619  0.9995850958786513  1.0000
  Re  Re24      1.0  0.002915533029527329  0.00916915603241107  0.9993913761102015  1.0000
  Pd  Pd5       1.0  0.002994762822886421  0.0016737087370248189  0.9992748415765845  1.0000
  Pd  Pd6       1.0  0.0029965571883154413  0.006671923061935588  0.9994971887747648  1.0000
  Pd  Pd7       1.0  0.006352039985527735  0.0033164442694881744  0.9994204746180347  1.0000
  Pd  Pd8       1.0  0.006291421394253252  0.008377045853861134  0.9996414777781549  1.0000
