data_image0
_chemical_formula_structural       HPd8Sn24
_chemical_formula_sum              "H1 Pd8 Sn24"
_cell_length_a       9.382684442680558
_cell_length_b       9.40614232080893
_cell_length_c       33.64483642578125
_cell_angle_alpha    90.13546738295818
_cell_angle_beta     93.93151877170746
_cell_angle_gamma    75.62100687196522

_space_group_name_H-M_alt    "P 1"
_space_group_IT_number       1

loop_
  _space_group_symop_operation_xyz
  'x, y, z'

loop_
  _atom_site_type_symbol
  _atom_site_label
  _atom_site_symmetry_multiplicity
  _atom_site_fract_x
  _atom_site_fract_y
  _atom_site_fract_z
  _atom_site_occupancy
  H   H1        1.0  0.0031086904194011084  0.007522548998543702  0.00020032759657225563  1.0000
  Pd  Pd1       1.0  0.004574179377614503  0.006538517876553389  0.9984995415383796  1.0000
  Pd  Pd2       1.0  0.009611880764264225  0.0076611942645589005  0.9998084212759756  1.0000
  Pd  Pd3       1.0  0.0004258204525026895  0.0033448637598388065  0.9987296029205613  1.0000
  Pd  Pd4       1.0  0.005614062694357861  0.00453283037922271  1.2722775870154839e-05  1.0000
  Pd  Pd5       1.0  0.0002636977425456047  0.0045449948487321454  8.046370785936726e-06  1.0000
  Pd  Pd6       1.0  0.00542582049230023  0.0033448637598388065  0.9987296032933549  1.0000
  Pd  Pd7       1.0  0.00957417921842434  0.006538517876553389  0.9984995414644725  1.0000
  Pd  Pd8       1.0  0.004606499934188414  0.007654395835365857  0.9998028154143884  1.0000
  Sn  Sn1       1.0  0.0025805994501439888  0.005746032681083657  0.9997996550531413  1.0000
  Sn  Sn2       1.0  0.007490207958963072  0.004719599904239386  0.9983745902368962  1.0000
  Sn  Sn3       1.0  0.009111635423446847  0.005564242782598492  0.999287275245455  1.0000
  Sn  Sn4       1.0  0.004111635391173771  0.004314242848023048  0.997936578878865  1.0000
  Sn  Sn5       1.0  0.005888364427634527  0.005569138992820885  0.9992925655091315  1.0000
  Sn  Sn6       1.0  0.0008883645943491547  0.004319139058245441  0.9979418695892422  1.0000
  Sn  Sn7       1.0  0.0025097922578206327  0.0051637819366045475  0.9988545546016059  1.0000
  Sn  Sn8       1.0  0.007519595122568468  0.00638153737867147  0.000172590531494741  1.0000
  Sn  Sn9       1.0  0.001736778366668811  0.00925375553962802  0.9998961118327756  1.0000
  Sn  Sn10      1.0  0.006659933370110725  0.008285046848692787  0.9986030406260974  1.0000
  Sn  Sn11      1.0  0.0015956554149401563  0.0023282751297290442  0.9995235550395475  1.0000
  Sn  Sn12      1.0  0.006634326506287948  0.0011718997795506496  0.9981653165659438  1.0000
  Sn  Sn13      1.0  4.268729335933319e-05  0.001172679456253635  0.9981661588690335  1.0000
  Sn  Sn14      1.0  0.005067960280867478  0.002349464098955217  0.9995194571682927  1.0000
  Sn  Sn15      1.0  0.0016630524389842877  0.007887137151486007  0.9981730763480556  1.0000
  Sn  Sn16      1.0  0.006700016004957451  0.009065619868097815  0.9995341024026893  1.0000
  Sn  Sn17      1.0  0.003340066127381819  0.0015983346854735398  0.9986261037555526  1.0000
  Sn  Sn18      1.0  0.008391112368080269  0.002669245631249092  0.9999779518695  1.0000
  Sn  Sn19      1.0  0.0033656732103074793  0.00871148247019676  0.9990638278203687  1.0000
  Sn  Sn20      1.0  0.00836567306407982  0.007461481717814363  0.9977131317522285  1.0000
  Sn  Sn21      1.0  0.009957312426634867  0.00871070228236443  0.9990629855170061  1.0000
  Sn  Sn22      1.0  0.0049573127923371995  0.007460702347788986  0.9977122893794736  1.0000
  Sn  Sn23      1.0  0.008336947828905851  0.0019962444849061884  0.9990560680483925  1.0000
  Sn  Sn24      1.0  0.0033369477966327765  0.0007462445503307447  0.9977053719032506  1.0000
