data_image0
_chemical_formula_structural       HPt4Sn8
_chemical_formula_sum              "H1 Pt4 Sn8"
_cell_length_a       4.657598972320557
_cell_length_b       4.657598972320557
_cell_length_c       109.52104187011719
_cell_angle_alpha    90.0
_cell_angle_beta     90.0
_cell_angle_gamma    90.0

_space_group_name_H-M_alt    "P 1"
_space_group_IT_number       1

loop_
  _space_group_symop_operation_xyz
  'x, y, z'

loop_
  _atom_site_type_symbol
  _atom_site_label
  _atom_site_symmetry_multiplicity
  _atom_site_fract_x
  _atom_site_fract_y
  _atom_site_fract_z
  _atom_site_occupancy
  H   H1        1.0  0.0033333335226265813  0.009166666837297199  0.0001506085981246302  1.0000
  Pt  Pt1       1.0  0.0050000003839187  0.0008333333806566453  0.9995485263224843  1.0000
  Pt  Pt2       1.0  5.000000239277699e-10  0.0058333335146282745  0.9992478152602043  1.0000
  Pt  Pt3       1.0  0.0050000007838340126  0.0008333333806566453  0.00011434273865072182  1.0000
  Pt  Pt4       1.0  5.000000239277699e-10  0.0058333335146282745  0.9998492373847643  1.0000
  Sn  Sn1       1.0  0.0050000003839187  0.0058333335146282745  0.9990974597290644  1.0000
  Sn  Sn2       1.0  5.000000239277699e-10  0.0008333333806566453  0.9990974597290644  1.0000
  Sn  Sn3       1.0  5.000000239277699e-10  0.0008333333806566453  0.9993981707913443  1.0000
  Sn  Sn4       1.0  0.0050000003839187  0.0058333335146282745  0.9993981707913443  1.0000
  Sn  Sn5       1.0  0.0050000003839187  0.0058333335146282745  0.9996988818536243  1.0000
  Sn  Sn6       1.0  5.000000239277699e-10  0.0008333333806566453  0.9996988818536243  1.0000
  Sn  Sn7       1.0  0.009999999968006774  0.0008333335806143017  0.0  1.0000
  Sn  Sn8       1.0  0.0050000003839187  0.005833333114712962  0.0  1.0000
