data_image0
_chemical_formula_structural       HV6Pt12V6Pt12
_chemical_formula_sum              "H1 V12 Pt24"
_cell_length_a       11.417401662569544
_cell_length_b       5.500377655029297
_cell_length_c       107.13782501220703
_cell_angle_alpha    90.0
_cell_angle_beta     113.36807763740731
_cell_angle_gamma    90.0

_space_group_name_H-M_alt    "P 1"
_space_group_IT_number       1

loop_
  _space_group_symop_operation_xyz
  'x, y, z'

loop_
  _atom_site_type_symbol
  _atom_site_label
  _atom_site_symmetry_multiplicity
  _atom_site_fract_x
  _atom_site_fract_y
  _atom_site_fract_z
  _atom_site_occupancy
  H   H1        1.0  0.009782768042327137  0.006250000406367403  0.0003239937348075012  1.0000
  V   V1        1.0  0.003550566082444087  0.00125000001354558  0.9997167820293198  1.0000
  V   V2        1.0  0.0002172326178955644  0.00125000001354558  0.9994279187586891  1.0000
  V   V3        1.0  0.006883899524777848  0.00125000001354558  5.64529901153923e-06  1.0000
  V   V4        1.0  0.003550566082444087  0.0037500000406367404  0.000150077205114549  1.0000
  V   V5        1.0  0.0002172326178955644  0.0037500000406367404  0.9998612139344838  1.0000
  V   V6        1.0  0.006883899524777848  0.0037500000406367404  0.9995723504013848  1.0000
  Pt  Pt1       1.0  0.004682850326086818  0.0037500000406367404  0.9999538319141359  1.0000
  Pt  Pt2       1.0  0.0013495166171759226  0.0037500000406367404  0.9996649686331763  1.0000
  Pt  Pt3       1.0  0.0080161834129844  0.0037500000406367404  0.00024269516880390908  1.0000
  Pt  Pt4       1.0  0.0024182818388013556  0.00125000001354558  0.9999130273202984  1.0000
  Pt  Pt5       1.0  0.009084948723468877  0.00125000001354558  0.9996241640644286  1.0000
  Pt  Pt6       1.0  0.005751615281135117  0.00125000001354558  0.00020189058999015033  1.0000
  Pt  Pt7       1.0  0.0013495166171759226  0.00125000001354558  9.826325263497723e-05  1.0000
  Pt  Pt8       1.0  0.0080161834129844  0.00125000001354558  0.9998094002711773  1.0000
  Pt  Pt9       1.0  0.004682850326086818  0.00125000001354558  0.9995205370165092  1.0000
  Pt  Pt10      1.0  0.0024182818388013556  0.0037500000406367404  0.9994797321445037  1.0000
  Pt  Pt11      1.0  0.009084948723468877  0.0037500000406367404  5.745868388714061e-05  1.0000
  Pt  Pt12      1.0  0.005751615281135117  0.0037500000406367404  0.9997685956923634  1.0000
  V   V7        1.0  0.003550566082444087  0.006250000406367403  0.9997167820293198  1.0000
  V   V8        1.0  0.0002172326178955644  0.006250000406367403  0.9994279187586891  1.0000
  V   V9        1.0  0.006883899524777848  0.006250000406367403  5.64529901153923e-06  1.0000
  V   V10       1.0  0.003550566082444087  0.008750000433458563  0.000150077205114549  1.0000
  V   V11       1.0  0.0002172326178955644  0.008750000433458563  0.9998612139344838  1.0000
  V   V12       1.0  0.006883899524777848  0.008750000433458563  0.9995723504013848  1.0000
  Pt  Pt13      1.0  0.004682850326086818  0.008750000433458563  0.9999538319141359  1.0000
  Pt  Pt14      1.0  0.0013495166171759226  0.008750000433458563  0.9996649686331763  1.0000
  Pt  Pt15      1.0  0.0080161834129844  0.008750000433458563  0.00024269516880390908  1.0000
  Pt  Pt16      1.0  0.0024182818388013556  0.006250000406367403  0.9999130273202984  1.0000
  Pt  Pt17      1.0  0.009084948723468877  0.006250000406367403  0.9996241640644286  1.0000
  Pt  Pt18      1.0  0.005751615281135117  0.006250000406367403  0.00020189058999015033  1.0000
  Pt  Pt19      1.0  0.0013495166171759226  0.006250000406367403  9.826325263497723e-05  1.0000
  Pt  Pt20      1.0  0.0080161834129844  0.006250000406367403  0.9998094002711773  1.0000
  Pt  Pt21      1.0  0.004682850326086818  0.006250000406367403  0.9995205370165092  1.0000
  Pt  Pt22      1.0  0.0024182818388013556  0.008750000433458563  0.9994797321445037  1.0000
  Pt  Pt23      1.0  0.009084948723468877  0.008750000433458563  5.745868388714061e-05  1.0000
  Pt  Pt24      1.0  0.005751615281135117  0.008750000433458563  0.9997685956923634  1.0000
