data_image0
_chemical_formula_structural       HRe6Ti12Zn6
_chemical_formula_sum              "H1 Re6 Ti12 Zn6"
_cell_length_a       6.290134906768799
_cell_length_b       7.7038103095706845
_cell_length_c       103.8734130859375
_cell_angle_alpha    94.34775328065443
_cell_angle_beta     90.0
_cell_angle_gamma    114.09484307715033

_space_group_name_H-M_alt    "P 1"
_space_group_IT_number       1

loop_
  _space_group_symop_operation_xyz
  'x, y, z'

loop_
  _atom_site_type_symbol
  _atom_site_label
  _atom_site_symmetry_multiplicity
  _atom_site_fract_x
  _atom_site_fract_y
  _atom_site_fract_z
  _atom_site_occupancy
  H   H1        1.0  0.0036588174031510832  0.0019846301111488425  0.0001464383013671891  1.0000
  Re  Re1       1.0  0.0069375007658883155  0.003546701119969486  0.9997653355262868  1.0000
  Re  Re2       1.0  0.002767648613141371  0.005207368738830548  0.9994955206006163  1.0000
  Re  Re3       1.0  0.0011541867806477081  0.001980051565180949  1.1132765671274675e-05  1.0000
  Re  Re4       1.0  0.009850981908816815  0.009374035334623262  0.9996313967428473  1.0000
  Re  Re5       1.0  0.005684315213357605  0.0010407019437048417  0.9993596444572646  1.0000
  Re  Re6       1.0  0.003958793111413295  0.007590543509270381  0.9998921404525181  1.0000
  Ti  Ti1       1.0  0.004642648695508748  0.003957368813248199  0.9992917063956979  1.0000
  Ti  Ti2       1.0  0.002966592561086029  0.0006273928224873165  0.9998382196975736  1.0000
  Ti  Ti3       1.0  0.008809315228435812  0.002290702068620184  0.9995634589502138  1.0000
  Ti  Ti4       1.0  0.0048780910561816325  0.004698004370348769  0.9999665660721422  1.0000
  Ti  Ti5       1.0  0.0008926487006778621  0.0064573689301902215  0.9996993350939392  1.0000
  Ti  Ti6       1.0  0.006725982126293767  0.008124035674818238  0.9994275825394231  1.0000
  Ti  Ti7       1.0  0.000149018041256131  0.004699116914228818  0.9999666618433027  1.0000
  Ti  Ti8       1.0  0.00589264875397976  0.0064573689301902215  0.9996993350939392  1.0000
  Ti  Ti9       1.0  0.0017259820729918697  0.008124035674818238  0.9994275825394231  1.0000
  Ti  Ti10      1.0  0.00964264860074982  0.003957368813248199  0.9992917063956979  1.0000
  Ti  Ti11      1.0  0.007989392554461081  0.0006259647344788423  0.9998381697793403  1.0000
  Ti  Ti12      1.0  0.003809315323194741  0.002290702068620184  0.9995634589502138  1.0000
  Zn  Zn1       1.0  0.0019093452425234469  0.003494949490911827  0.9997614432601992  1.0000
  Zn  Zn2       1.0  0.0077676486109204594  0.005207368738830548  0.9994955206006163  1.0000
  Zn  Zn3       1.0  0.005958206905872202  0.0015787263435218099  4.3366356248188546e-05  1.0000
  Zn  Zn4       1.0  0.004850981874022522  0.009374035334623262  0.9996313967428473  1.0000
  Zn  Zn5       1.0  0.0006843152711013275  0.0010407019437048417  0.9993596444572646  1.0000
  Zn  Zn6       1.0  0.009024223496782  0.007719949956978943  0.9999085952947369  1.0000
