data_image0
_chemical_formula_structural       V6Si2V6Si2CO
_chemical_formula_sum              "V12 Si4 C1 O1"
_cell_length_a       4.712306976318359
_cell_length_b       4.712306976318359
_cell_length_c       37.013851165771484
_cell_angle_alpha    90.0
_cell_angle_beta     90.0
_cell_angle_gamma    90.0

_space_group_name_H-M_alt    "P 1"
_space_group_IT_number       1

loop_
  _space_group_symop_operation_xyz
  'x, y, z'

loop_
  _atom_site_type_symbol
  _atom_site_label
  _atom_site_symmetry_multiplicity
  _atom_site_fract_x
  _atom_site_fract_y
  _atom_site_fract_z
  _atom_site_occupancy
  V   V1        1.0  0.010000000221352575  0.006250031858959907  0.0  1.0000
  V   V2        1.0  0.009999997849717843  0.006250006956795216  0.9994179743422857  1.0000
  V   V3        1.0  0.005000000505948743  0.0037499999841891017  0.9990699160527989  1.0000
  V   V4        1.0  0.005000000505948743  0.008750000094865389  0.9990699160527989  1.0000
  V   V5        1.0  0.007571097624934935  0.0012500155421129471  0.9996898095081098  1.0000
  V   V6        1.0  0.002428903386962551  0.001250015640931061  0.9996898099106932  1.0000
  Si  Si1       1.0  3.0000001494741464e-10  0.001250000027669072  0.9990699160527989  1.0000
  Si  Si2       1.0  0.005000002087038565  0.0062500259298730754  0.9997081387266761  1.0000
  V   V7        1.0  3.0000001494741464e-10  0.006250000237163473  0.998751636453117  1.0000
  V   V8        1.0  3.0000001494741464e-10  0.006250000237163473  0.9981150764485864  1.0000
  V   V9        1.0  0.005000000505948743  0.0037499999841891017  0.9977967964463211  1.0000
  V   V10       1.0  0.005000000505948743  0.008750000094865389  0.9977967964463211  1.0000
  V   V11       1.0  0.007500000758923114  0.001250000027669072  0.9984333564508517  1.0000
  V   V12       1.0  0.0025000004506105992  0.001250000027669072  0.9984333564508517  1.0000
  Si  Si3       1.0  3.0000001494741464e-10  0.001250000027669072  0.9977967964463211  1.0000
  Si  Si4       1.0  0.005000000505948743  0.006250000237163473  0.9984333564508517  1.0000
  C   C1        1.0  0.005000002087038565  0.0062500259298730754  0.0002484768757138931  1.0000
  O   O1        1.0  0.005000002087038565  0.0062500259298730754  0.0005726800872032955  1.0000
