data_image0
_chemical_formula_structural       COAl12Fe4Al12Fe4
_chemical_formula_sum              "C1 O1 Al24 Fe8"
_cell_length_a       5.404006481170654
_cell_length_b       11.668372600660812
_cell_length_c       34.820213317871094
_cell_angle_alpha    112.14001040838177
_cell_angle_beta     90.0
_cell_angle_gamma    62.41055088720266

_space_group_name_H-M_alt    "P 1"
_space_group_IT_number       1

loop_
  _space_group_symop_operation_xyz
  'x, y, z'

loop_
  _atom_site_type_symbol
  _atom_site_label
  _atom_site_symmetry_multiplicity
  _atom_site_fract_x
  _atom_site_fract_y
  _atom_site_fract_z
  _atom_site_occupancy
  C   C1        1.0  0.005809118177983395  0.00538336798612304  0.0010646312517129375  1.0000
  O   O1        1.0  0.005809118177983395  0.00538336798612304  0.001409258506199452  1.0000
  Al  Al1       1.0  0.0034160600513909807  0.004120625410863883  0.9998528681784125  1.0000
  Al  Al2       1.0  0.0033528750310759846  0.009096713110587542  0.0005334565531302772  1.0000
  Al  Al3       1.0  0.008272973252272798  0.0017130331844034542  0.9995581615649449  1.0000
  Al  Al4       1.0  0.008277820940094181  0.0067082897825259  0.00018348200099635185  1.0000
  Al  Al5       1.0  0.00831444671920909  0.004120598744829941  0.999852837850157  1.0000
  Al  Al6       1.0  0.008424312534545902  0.009097104743086023  0.0005334572269082631  1.0000
  Al  Al7       1.0  0.006576086545933975  0.0009098277650578938  0.00011488492190550679  1.0000
  Al  Al8       1.0  0.00655377358763462  0.0058448324594897886  0.0007057741697296116  1.0000
  Al  Al9       1.0  0.001636607195201126  0.0033501445881712363  0.00041870649560927874  1.0000
  Al  Al10      1.0  0.0016990396847597873  0.008286966751916465  0.9997569350133344  1.0000
  Al  Al11      1.0  0.0015756875808459892  0.0009099337326927728  0.00011491627836530088  1.0000
  Al  Al12      1.0  0.00172985713973233  0.005845497120335791  0.0007057695255300381  1.0000
  Fe  Fe1       1.0  0.006638198852790053  0.0033481681176555215  0.00032430968342697316  1.0000
  Fe  Fe2       1.0  0.006652672925406203  0.008333333014932928  0.9997627906467681  1.0000
  Fe  Fe3       1.0  0.0033193395212695225  0.0016666667223867375  0.9995523059063793  1.0000
  Fe  Fe4       1.0  0.003382335363452308  0.006604919498952895  0.00017469860920597404  1.0000
  Al  Al13      1.0  0.0034120725478672116  0.004143483375958232  0.9986021970744845  1.0000
  Al  Al14      1.0  0.0034120731707277495  0.009143482946117686  0.9992336511263421  1.0000
  Al  Al15      1.0  0.008272973252272798  0.0017130331844034542  0.998295253523838  1.0000
  Al  Al16      1.0  0.008272972787775718  0.0067130331525634135  0.9989267076259595  1.0000
  Al  Al17      1.0  0.008272972884211716  0.004143483375958232  0.9986021970744845  1.0000
  Al  Al18      1.0  0.008272972817715142  0.009143482946117686  0.9992336511263421  1.0000
  Al  Al19      1.0  0.006559940164305341  0.0008565165922017271  0.9988185373605665  1.0000
  Al  Al20      1.0  0.006559939699808262  0.005856516560361686  0.999449991462688  1.0000
  Al  Al21      1.0  0.0016990394598997553  0.003286966783756505  0.9991254809112129  1.0000
  Al  Al22      1.0  0.0016990396847597873  0.008286966751916465  0.9984940269722276  1.0000
  Al  Al23      1.0  0.0016990393109430034  0.0008565165922017271  0.9988185373605665  1.0000
  Al  Al24      1.0  0.0016990393634637583  0.005856516560361686  0.999449991462688  1.0000
  Fe  Fe5       1.0  0.00665267319090303  0.0033333332457732216  0.9991313365697785  1.0000
  Fe  Fe6       1.0  0.006652672925406203  0.008333333014932928  0.9984998826056611  1.0000
  Fe  Fe7       1.0  0.0033193395212695225  0.0016666667223867375  0.9982893978652725  1.0000
  Fe  Fe8       1.0  0.0033193399451298088  0.006666666491546443  0.998920851942262  1.0000
