data_image0
_chemical_formula_structural       HAl8Ti24
_chemical_formula_sum              "H1 Al8 Ti24"
_cell_length_a       10.997805301117095
_cell_length_b       7.435669745004322
_cell_length_c       98.08888244628906
_cell_angle_alpha    91.73606224983394
_cell_angle_beta     92.34781809333018
_cell_angle_gamma    70.66582411525978

_space_group_name_H-M_alt    "P 1"
_space_group_IT_number       1

loop_
  _space_group_symop_operation_xyz
  'x, y, z'

loop_
  _atom_site_type_symbol
  _atom_site_label
  _atom_site_symmetry_multiplicity
  _atom_site_fract_x
  _atom_site_fract_y
  _atom_site_fract_z
  _atom_site_occupancy
  H   H1        1.0  0.00792921323597358  0.005742868032821543  0.00015332263638830873  1.0000
  Al  Al1       1.0  0.004628191226358668  0.002897665801764948  0.9996123611027864  1.0000
  Al  Al2       1.0  0.007733668982508437  0.0053763993661630535  0.999786893261149  1.0000
  Al  Al3       1.0  0.0009012639943535266  0.007841761301311059  0.999966750734241  1.0000
  Al  Al4       1.0  0.001503191136566547  0.00039766591578265355  0.9994333851692179  1.0000
  Al  Al5       1.0  0.003880830927958043  0.008319605924540186  0.9997583861286183  1.0000
  Al  Al6       1.0  0.006981907074320407  0.0008117219837527362  0.9999456234675056  1.0000
  Al  Al7       1.0  0.007649024463913739  0.003314332856038001  0.9994035560703908  1.0000
  Al  Al8       1.0  0.000774024338204769  0.0058143328572732465  0.99958253179663  1.0000
  Ti  Ti1       1.0  0.0027351509835125  0.005434777445500847  0.9997850538226881  1.0000
  Ti  Ti2       1.0  0.005930810558794904  0.007826722953020122  0.9999576509829144  1.0000
  Ti  Ti3       1.0  0.006495590790207447  0.00042806689423322474  0.9994312087558191  1.0000
  Ti  Ti4       1.0  0.009620590790207446  0.002928066824060642  0.999610184689076  1.0000
  Ti  Ti5       1.0  0.007315624162419093  0.002102333686832177  0.9996725641353207  1.0000
  Ti  Ti6       1.0  0.00037940924570940203  0.0045551024450796096  0.9998511353387898  1.0000
  Ti  Ti7       1.0  0.0036662256029778  0.006741623222126455  1.175440843210083e-05  1.0000
  Ti  Ti8       1.0  0.004190623803250607  0.00960233410280438  0.9994935881525955  1.0000
  Ti  Ti9       1.0  0.005422290838088916  0.004605165281006845  0.9998389902013761  1.0000
  Ti  Ti10      1.0  0.008566266786672999  0.007036229331263392  1.2073599915867998e-05  1.0000
  Ti  Ti11      1.0  0.009224825191261528  0.009556731744456733  0.9994903235567788  1.0000
  Ti  Ti12      1.0  0.002349824975760437  0.0020567323709670664  0.9996692993326544  1.0000
  Ti  Ti13      1.0  0.003052390499010879  0.006655266331916251  0.9995255938702802  1.0000
  Ti  Ti14      1.0  0.006177390499010879  0.009155266512360033  0.9997045698041126  1.0000
  Ti  Ti15      1.0  0.009175908598573992  0.0016480883166205976  0.9998845978480172  1.0000
  Ti  Ti16      1.0  0.0022886689985991853  0.004159452553389571  3.5325265926056496e-05  1.0000
  Ti  Ti17      1.0  0.0012115917613128304  0.009109664977269305  0.9997013050030049  1.0000
  Ti  Ti18      1.0  0.004313803149465121  0.0015889372279494834  0.9998820042532947  1.0000
  Ti  Ti19      1.0  0.007182613297256344  0.004361869695790509  4.300777301306019e-05  1.0000
  Ti  Ti20      1.0  0.008086592246190285  0.006609664299420837  0.9995223292768615  1.0000
  Ti  Ti21      1.0  0.005781624900064961  0.0057839315129533594  0.9995847084167825  1.0000
  Ti  Ti22      1.0  0.008883401065805183  0.008226073109450047  0.9997625819292156  1.0000
  Ti  Ti23      1.0  0.0020426994652239855  0.0007475233058497301  0.9999270646105269  1.0000
  Ti  Ti24      1.0  0.0026566247204807183  0.003283931420199826  0.9994057324823266  1.0000
