data_image0
_chemical_formula_structural       HNb16
_chemical_formula_sum              "H1 Nb16"
_cell_length_a       5.623401906686303
_cell_length_b       5.78730063778219
_cell_length_c       103.88898468017578
_cell_angle_alpha    91.12590890062674
_cell_angle_beta     88.72746214294017
_cell_angle_gamma    71.84987239358261

_space_group_name_H-M_alt    "P 1"
_space_group_IT_number       1

loop_
  _space_group_symop_operation_xyz
  'x, y, z'

loop_
  _atom_site_type_symbol
  _atom_site_label
  _atom_site_symmetry_multiplicity
  _atom_site_fract_x
  _atom_site_fract_y
  _atom_site_fract_z
  _atom_site_occupancy
  H   H1        1.0  0.008638346288185392  0.0013517449148582566  0.00014356755397078438  1.0000
  Nb  Nb1       1.0  0.001250000014533481  0.0012500000372719165  0.9993000515535463  1.0000
  Nb  Nb2       1.0  0.003750000070808483  0.0037500000271068483  0.999533054177031  1.0000
  Nb  Nb3       1.0  0.001250000014533481  0.0012500000372719165  0.9997660569706419  1.0000
  Nb  Nb4       1.0  0.003750000070808483  0.0037500000271068483  0.9999990598809936  1.0000
  Nb  Nb5       1.0  0.0012499999129342726  0.006250000271068483  0.9993000514657128  1.0000
  Nb  Nb6       1.0  0.003749999887585155  0.008750000515030118  0.9995330540895737  1.0000
  Nb  Nb7       1.0  0.0012499999129342726  0.006250000271068483  0.9997660571696754  1.0000
  Nb  Nb8       1.0  0.003749999887585155  0.008750000515030118  0.9999990595066693  1.0000
  Nb  Nb9       1.0  0.006250000147058574  0.0012500000372719165  0.9993000514716299  1.0000
  Nb  Nb10      1.0  0.008749999540708112  0.0037500000271068483  0.9995330540959111  1.0000
  Nb  Nb11      1.0  0.006250000147058574  0.0012500000372719165  0.9997660568887256  1.0000
  Nb  Nb12      1.0  0.008749999540708112  0.0037500000271068483  0.9999990597998738  1.0000
  Nb  Nb13      1.0  0.006250000045459366  0.006250000271068483  0.9993000513837963  1.0000
  Nb  Nb14      1.0  0.008750000020110248  0.008750000515030118  0.9995330542945243  1.0000
  Nb  Nb15      1.0  0.006250000045459366  0.006250000271068483  0.999766057087759  1.0000
  Nb  Nb16      1.0  0.008750000020110248  0.008750000515030118  0.999999059424753  1.0000
