data_image0
_chemical_formula_structural       COAl24Re2
_chemical_formula_sum              "C1 O1 Al24 Re2"
_cell_length_a       6.559658050537109
_cell_length_b       6.55965813932546
_cell_length_c       37.8643684387207
_cell_angle_alpha    90.0
_cell_angle_beta     90.0
_cell_angle_gamma    109.4712210965692

_space_group_name_H-M_alt    "P 1"
_space_group_IT_number       1

loop_
  _space_group_symop_operation_xyz
  'x, y, z'

loop_
  _atom_site_type_symbol
  _atom_site_label
  _atom_site_symmetry_multiplicity
  _atom_site_fract_x
  _atom_site_fract_y
  _atom_site_fract_z
  _atom_site_occupancy
  C   C1        1.0  0.009923415687255374  0.003024729686479725  0.0002895922613497574  1.0000
  O   O1        1.0  0.009923415687255374  0.003024729686479725  0.0006065131532683579  1.0000
  Al  Al1       1.0  0.009091405552260371  0.00695795059783666  0.997924123235289  1.0000
  Al  Al2       1.0  0.004090896766630217  0.0019870810132725544  0.9993340118632112  1.0000
  Al  Al3       1.0  0.0025696717250241236  0.007314573443888737  0.9994220602457939  1.0000
  Al  Al4       1.0  0.00755012808861539  0.0023341183749603987  0.9980198724177071  1.0000
  Al  Al5       1.0  0.003464538931666309  0.00019234464863482969  0.0  1.0000
  Al  Al6       1.0  0.008489994555134408  0.005153717672035762  0.9986260416166083  1.0000
  Al  Al7       1.0  0.009467573514925555  0.00041667315055595876  0.9974774248974931  1.0000
  Al  Al8       1.0  0.0044675734773372425  0.005416673140014682  0.9988919313292414  1.0000
  Al  Al9       1.0  0.006647974047951198  0.009476806810057204  0.9991684891368223  1.0000
  Al  Al10      1.0  0.001647973796386876  0.0044768068582458995  0.9977539830986145  1.0000
  Al  Al11      1.0  0.007661575104470092  0.0022226654531371883  0.9997808282631468  1.0000
  Al  Al12      1.0  0.00258784034859678  0.007296406305910934  0.9983601522975157  1.0000
  Al  Al13      1.0  0.009691895861461897  0.006419709379570939  0.9999999984258381  1.0000
  Al  Al14      1.0  0.004730528659170238  0.0013942519426019444  0.9986260416166083  1.0000
  Al  Al15      1.0  0.005407439710098209  0.008236272587679717  0.9977539830986145  1.0000
  Al  Al16      1.0  0.00040743961825835597  0.003236272635868411  0.9991684891368223  1.0000
  Al  Al17      1.0  0.005670395175885815  0.004213851390266979  0.9974880937795219  1.0000
  Al  Al18      1.0  0.0006703951257483632  0.009213851342078284  0.9989025998177297  1.0000
  Al  Al19      1.0  0.002185256391225868  0.0038267940704119333  0.9998834856549023  1.0000
  Al  Al20      1.0  0.0072116726897273565  0.008837683763732911  0.9984559018734742  1.0000
  Al  Al21      1.0  0.002926295754835929  0.0007928409924332569  0.997924123235289  1.0000
  Al  Al22      1.0  0.007897172458857269  0.005793360553906303  0.9993340138309136  1.0000
  Al  Al23      1.0  0.006057459406625108  0.007698991529159905  0.9998834852613617  1.0000
  Al  Al24      1.0  0.001046562870249565  0.002672573932445001  0.9984559018734742  1.0000
  Re  Re1       1.0  0.005068984184634223  0.00481526226514083  0.9981900125543817  1.0000
  Re  Re2       1.0  7.658426535005032e-05  0.009807655330282616  0.9995885436044599  1.0000
