data_image0
_chemical_formula_structural       COFe10Si6Fe10Si6
_chemical_formula_sum              "C1 O1 Fe20 Si12"
_cell_length_a       6.65066454339107
_cell_length_b       4.653280735015869
_cell_length_c       109.90398406982422
_cell_angle_alpha    90.0
_cell_angle_beta     60.000001063729286
_cell_angle_gamma    90.0

_space_group_name_H-M_alt    "P 1"
_space_group_IT_number       1

loop_
  _space_group_symop_operation_xyz
  'x, y, z'

loop_
  _atom_site_type_symbol
  _atom_site_label
  _atom_site_symmetry_multiplicity
  _atom_site_fract_x
  _atom_site_fract_y
  _atom_site_fract_z
  _atom_site_occupancy
  C   C1        1.0  0.004027736886168799  0.00499994941980627  0.99987813396273  1.0000
  O   O1        1.0  0.004027736886168799  0.00499994941980627  0.9999873198563589  1.0000
  Fe  Fe1       1.0  0.007615673522313796  0.008749962821396062  0.9989226815617888  1.0000
  Fe  Fe2       1.0  0.0023871723611933256  0.0037499633657856113  0.9989226810833065  1.0000
  Fe  Fe3       1.0  1.4230499206309769e-06  0.0037499633657856113  0.9987783115640766  1.0000
  Fe  Fe4       1.0  0.0023871723611933256  0.008749962821396062  0.9987783115558884  1.0000
  Fe  Fe5       1.0  1.4230499206309769e-06  0.008749962821396062  0.9990670511612466  1.0000
  Fe  Fe6       1.0  0.007615673522313796  0.0037499633657856113  0.9990670513603739  1.0000
  Fe  Fe7       1.0  0.0033347561672882765  0.006249963093590836  0.9991243926333445  1.0000
  Fe  Fe8       1.0  0.0066680893928229915  0.0012499634378371693  0.9987209700215357  1.0000
  Fe  Fe9       1.0  0.0066680893928229915  0.006249963093590836  0.9987209700215357  1.0000
  Fe  Fe10      1.0  0.0033347561672882765  0.0012499634378371693  0.9991243926333445  1.0000
  Si  Si1       1.0  0.006047057459940309  0.008749962821396062  0.9991619732252021  1.0000
  Si  Si2       1.0  1.4230499206309769e-06  0.0037499633657856113  0.999161973676065  1.0000
  Si  Si3       1.0  0.006047057459940309  0.0037499633657856113  0.9989226814541325  1.0000
  Si  Si4       1.0  0.003955788423566813  0.008749962821396062  0.9989226811909627  1.0000
  Si  Si5       1.0  1.4230499206309769e-06  0.008749962821396062  0.9986833893204251  1.0000
  Si  Si6       1.0  0.003955788423566813  0.0037499633657856113  0.9986833891487263  1.0000
  Fe  Fe11      1.0  0.007651425580663722  0.008750036474099816  0.9995260595807024  1.0000
  Fe  Fe12      1.0  0.002380342564172086  0.0037499157317000312  0.9995260453453139  1.0000
  Fe  Fe13      1.0  1.4230499206309769e-06  0.0037499633657856113  0.9993834454432956  1.0000
  Fe  Fe14      1.0  0.0023871723611933256  0.008749962821396062  0.9993834457062744  1.0000
  Fe  Fe15      1.0  9.300649979580786e-06  0.008749772285053742  0.9996669024436351  1.0000
  Fe  Fe16      1.0  0.007693829891711545  0.0037501078691880843  0.9996668951370741  1.0000
  Fe  Fe17      1.0  0.0033688624641418675  0.006249790970424456  0.9997254184511959  1.0000
  Fe  Fe18      1.0  0.0066680893928229915  0.0012499634378371693  0.9993261039007547  1.0000
  Fe  Fe19      1.0  0.0066680893928229915  0.006249963093590836  0.9993261039007547  1.0000
  Fe  Fe20      1.0  0.00336916807322303  0.0012500710148161571  0.9997253918497914  1.0000
  Si  Si7       1.0  0.0060551054891401085  0.00874999164201927  0.9997667990598732  1.0000
  Si  Si8       1.0  0.009998577058246439  0.00374939015561292  0.9997667532037927  1.0000
  Si  Si9       1.0  0.006019902556948716  0.003750059834816071  0.9995289493354426  1.0000
  Si  Si10      1.0  0.003963663759381067  0.008749861949214835  0.9995289700440075  1.0000
  Si  Si11      1.0  1.4230499206309769e-06  0.008749962821396062  0.9992885234708111  1.0000
  Si  Si12      1.0  0.003955788423566813  0.0037499633657856113  0.9992885232991123  1.0000
