data_image0
_chemical_formula_structural       HIn18Ni26
_chemical_formula_sum              "H1 In18 Ni26"
_cell_length_a       9.182120640757006
_cell_length_b       10.642748832702637
_cell_length_c       104.20486450195312
_cell_angle_alpha    90.0
_cell_angle_beta     90.0
_cell_angle_gamma    125.29287538585173

_space_group_name_H-M_alt    "P 1"
_space_group_IT_number       1

loop_
  _space_group_symop_operation_xyz
  'x, y, z'

loop_
  _atom_site_type_symbol
  _atom_site_label
  _atom_site_symmetry_multiplicity
  _atom_site_fract_x
  _atom_site_fract_y
  _atom_site_fract_z
  _atom_site_occupancy
  H   H1        1.0  0.007602395959204121  0.007611882913761077  8.296499153630676e-05  1.0000
  In  In1       1.0  0.0027993968688299984  0.005669201779309649  0.999524866766386  1.0000
  In  In2       1.0  0.0047555000497544846  0.004362514729557141  0.9993521254687612  1.0000
  In  In3       1.0  0.007575805821446549  0.00823264059686094  0.9997624333831929  1.0000
  In  In4       1.0  0.0027993968688299984  0.0006692018860690548  0.9995896920855682  1.0000
  In  In5       1.0  0.004220807840257054  0.008936241056077621  0.9993521254687612  1.0000
  In  In6       1.0  0.0008983069625747335  0.00608444098313643  0.9997624333831929  1.0000
  In  In7       1.0  0.008997217041407438  0.0014996801235251666  0.9995896920855682  1.0000
  In  In8       1.0  0.008997217041407438  0.006499680060519616  0.999524866766386  1.0000
  In  In9       1.0  0.007041113611949118  0.0028063672681617946  0.9997624333831929  1.0000
  In  In10      1.0  0.0027993968688299984  0.0006692018860690548  0.9999351746808177  1.0000
  In  In11      1.0  0.0047555000497544846  0.009362514316520751  0.9997624333831929  1.0000
  In  In12      1.0  0.007575805821446549  0.003232640616112635  0.9993521254687612  1.0000
  In  In13      1.0  0.0027993968688299984  0.005669201779309649  0.0  1.0000
  In  In14      1.0  0.004220807840257054  0.00393624129409859  0.9997624333831929  1.0000
  In  In15      1.0  0.0008983069625747335  0.0010844411336496903  0.9993521254687612  1.0000
  In  In16      1.0  0.008997217041407438  0.006499680060519616  0.0  1.0000
  In  In17      1.0  0.008997217041407438  0.0014996801235251666  0.9999351746808177  1.0000
  In  In18      1.0  0.007041113611949118  0.007806367336417808  0.9993521254687612  1.0000
  Ni  Ni1       1.0  0.0024901285741471624  0.003029556658886304  0.9995495208879703  1.0000
  Ni  Ni2       1.0  0.005898306830851801  0.00858444065145386  0.9999675873404089  1.0000
  Ni  Ni3       1.0  0.007669267963596005  0.005637484635675147  0.9997624333831929  1.0000
  Ni  Ni4       1.0  0.0024901285741471624  0.008029556770896173  0.9995650379639839  1.0000
  Ni  Ni5       1.0  0.004127345698107599  0.0015313972745360795  0.9993521254687612  1.0000
  Ni  Ni6       1.0  0.005898306830851801  0.0010844410084853155  0.9999810572468909  1.0000
  Ni  Ni7       1.0  0.0006935148353980702  0.008498074182743964  0.9997624333831929  1.0000
  Ni  Ni8       1.0  0.009306484590488774  0.009139324984302918  0.9995495208879703  1.0000
  Ni  Ni9       1.0  0.0011030989033510219  0.008670807802624898  0.9993521254687612  1.0000
  Ni  Ni10      1.0  0.009306484590488774  0.004139324916046904  0.9995650379639839  1.0000
  Ni  Ni11      1.0  0.005898306830851801  0.006084440945479764  0.9999541174339268  1.0000
  Ni  Ni12      1.0  0.0008983069625747335  0.0010844411336496903  0.9997624333831929  1.0000
  Ni  Ni13      1.0  0.005898306830851801  0.00858444065145386  0.999557279425977  1.0000
  Ni  Ni14      1.0  0.0024901285741471624  0.008029556770896173  0.9999598288024021  1.0000
  Ni  Ni15      1.0  0.005898306830851801  0.0035844408894748305  0.999557279425977  1.0000
  Ni  Ni16      1.0  0.007669267963596005  0.0006374846986806973  0.9993521254687612  1.0000
  Ni  Ni17      1.0  0.0024901285741471624  0.003029556658886304  0.9999753458784156  1.0000
  Ni  Ni18      1.0  0.004127345698107599  0.006531397080268964  0.9997624333831929  1.0000
  Ni  Ni19      1.0  0.005898306830851801  0.006084440945479764  0.9995707493324592  1.0000
  Ni  Ni20      1.0  0.0006935148353980702  0.0034980740707340956  0.9993521254687612  1.0000
  Ni  Ni21      1.0  0.009306484590488774  0.004139324916046904  0.9999598288024021  1.0000
  Ni  Ni22      1.0  0.0011030989033510219  0.0036708083906767074  0.9997624333831929  1.0000
  Ni  Ni23      1.0  0.009306484590488774  0.009139324984302918  0.9999753458784156  1.0000
  Ni  Ni24      1.0  0.005898306830851801  0.0010844410084853155  0.9995438095194951  1.0000
  Ni  Ni25      1.0  0.0008983069625747335  0.00608444098313643  0.9993521254687612  1.0000
  Ni  Ni26      1.0  0.005898306830851801  0.0035844408894748305  0.9999675873404089  1.0000
