data_image0
_chemical_formula_structural       HV4Ir12V4Ir12V4Ir12V4Ir12
_chemical_formula_sum              "H1 V16 Ir48"
_cell_length_a       9.489853858947754
_cell_length_b       8.736486434936523
_cell_length_c       102.87381744384766
_cell_angle_alpha    90.0
_cell_angle_beta     90.0
_cell_angle_gamma    90.0

_space_group_name_H-M_alt    "P 1"
_space_group_IT_number       1

loop_
  _space_group_symop_operation_xyz
  'x, y, z'

loop_
  _atom_site_type_symbol
  _atom_site_label
  _atom_site_symmetry_multiplicity
  _atom_site_fract_x
  _atom_site_fract_y
  _atom_site_fract_z
  _atom_site_occupancy
  H   H1        1.0  0.002959823658732892  0.0037500105748689808  5.515846814680971e-05  1.0000
  V   V1        1.0  0.0033333480567657  0.0012500081443547393  0.9996087225135619  1.0000
  V   V2        1.0  0.00826216869859036  0.0012500067585352154  0.9998730057386314  1.0000
  V   V3        1.0  0.006666681196438529  0.003750008016432937  0.9996087225135619  1.0000
  V   V4        1.0  0.001737839945472404  0.0037500084428389443  0.9998730057386314  1.0000
  Ir  Ir1       1.0  0.004181807568270917  0.00375001228049301  0.9999977843909433  1.0000
  Ir  Ir2       1.0  0.009153994161845546  0.0037500075900269297  0.9997400153114345  1.0000
  Ir  Ir3       1.0  0.004159830372366816  0.0037500088692449516  0.9997400170496216  1.0000
  Ir  Ir4       1.0  0.009297971586901318  0.0037499841376965287  0.0  1.0000
  Ir  Ir5       1.0  0.0016750429100382852  0.003750008016432937  0.9996087225135619  1.0000
  Ir  Ir6       1.0  0.00675571268757098  0.003750008016432937  0.9998733330971871  1.0000
  Ir  Ir7       1.0  0.005840159232774784  0.0012500079311517356  0.999740018208413  1.0000
  Ir  Ir8       1.0  0.0007020285681579371  0.0012499874636633856  0.9999999988412086  1.0000
  Ir  Ir9       1.0  0.005818121975944125  0.001250010702790783  0.9999977838115477  1.0000
  Ir  Ir10      1.0  0.0008459984855978891  0.001250006971738219  0.9997400164702259  1.0000
  Ir  Ir11      1.0  0.008324986931998558  0.0012500081443547393  0.9996087225135619  1.0000
  Ir  Ir12      1.0  0.003244289086777961  0.001250010063181772  0.9998733307796044  1.0000
  V   V5        1.0  0.0033333480567657  0.0012500081443547393  0.999076131001677  1.0000
  V   V6        1.0  0.008333348355107557  0.0012500081443547393  0.9993424267576195  1.0000
  V   V7        1.0  0.006666681196438529  0.003750008016432937  0.999076131001677  1.0000
  V   V8        1.0  0.0016666812906517474  0.003750008016432937  0.9993424267576195  1.0000
  Ir  Ir13      1.0  0.004162500531990639  0.003750008016432937  0.9994762425339537  1.0000
  Ir  Ir14      1.0  0.009162500830332496  0.003750008016432937  0.9992099467780112  1.0000
  Ir  Ir15      1.0  0.004162500531990639  0.003750008016432937  0.9992086109812853  1.0000
  Ir  Ir16      1.0  0.009162500830332496  0.003750008016432937  0.9994749064475299  1.0000
  Ir  Ir17      1.0  0.0016750429100382852  0.003750008016432937  0.999076131001677  1.0000
  Ir  Ir18      1.0  0.00667504340465768  0.003750008016432937  0.9993424267576195  1.0000
  Ir  Ir19      1.0  0.0058375291137686665  0.0012500081443547393  0.9992086109812853  1.0000
  Ir  Ir20      1.0  0.000837528815426809  0.0012500081443547393  0.9994749064475299  1.0000
  Ir  Ir21      1.0  0.0058375291137686665  0.0012500081443547393  0.9994762425339537  1.0000
  Ir  Ir22      1.0  0.000837528815426809  0.0012500081443547393  0.9992099467780112  1.0000
  Ir  Ir23      1.0  0.008324986931998558  0.0012500081443547393  0.999076131001677  1.0000
  Ir  Ir24      1.0  0.003324986241101624  0.0012500081443547393  0.9993424267576195  1.0000
  V   V9        1.0  0.0033333480567657  0.0062500081017141385  0.9996087225135619  1.0000
  V   V10       1.0  0.00826216869859036  0.006250006396090109  0.9998730057386314  1.0000
  V   V11       1.0  0.006666681196438529  0.00875000818699534  0.9996087225135619  1.0000
  V   V12       1.0  0.001737839945472404  0.00875000818699534  0.9998730057386314  1.0000
  Ir  Ir25      1.0  0.004181807568270917  0.008750012451055413  0.9999977843909433  1.0000
  Ir  Ir26      1.0  0.009153994161845546  0.008750007334183326  0.9997400153114345  1.0000
  Ir  Ir27      1.0  0.004159830372366816  0.008750009039807355  0.9997400170496216  1.0000
  Ir  Ir28      1.0  0.009297971586901318  0.008749984308258931  0.0  1.0000
  Ir  Ir29      1.0  0.0016750429100382852  0.00875000818699534  0.9996087225135619  1.0000
  Ir  Ir30      1.0  0.00675571268757098  0.00875000818699534  0.9998733330971871  1.0000
  Ir  Ir31      1.0  0.005840159232774784  0.006250007675308131  0.999740018208413  1.0000
  Ir  Ir32      1.0  0.0007020285681579371  0.006249987207819781  0.9999999988412086  1.0000
  Ir  Ir33      1.0  0.005818121975944125  0.006250010660150182  0.9999977838115477  1.0000
  Ir  Ir34      1.0  0.0008459984855978891  0.006250006822496116  0.9997400164702259  1.0000
  Ir  Ir35      1.0  0.008324986931998558  0.0062500081017141385  0.9996087225135619  1.0000
  Ir  Ir36      1.0  0.003244289086777961  0.006250009807338168  0.9998733307796044  1.0000
  V   V13       1.0  0.0033333480567657  0.0062500081017141385  0.999076131001677  1.0000
  V   V14       1.0  0.008333348355107557  0.0062500081017141385  0.9993424267576195  1.0000
  V   V15       1.0  0.006666681196438529  0.00875000818699534  0.999076131001677  1.0000
  V   V16       1.0  0.0016666812906517474  0.00875000818699534  0.9993424267576195  1.0000
  Ir  Ir37      1.0  0.004162500531990639  0.00875000818699534  0.9994762425339537  1.0000
  Ir  Ir38      1.0  0.009162500830332496  0.00875000818699534  0.9992099467780112  1.0000
  Ir  Ir39      1.0  0.004162500531990639  0.00875000818699534  0.9992086109812853  1.0000
  Ir  Ir40      1.0  0.009162500830332496  0.00875000818699534  0.9994749064475299  1.0000
  Ir  Ir41      1.0  0.0016750429100382852  0.00875000818699534  0.999076131001677  1.0000
  Ir  Ir42      1.0  0.00667504340465768  0.00875000818699534  0.9993424267576195  1.0000
  Ir  Ir43      1.0  0.0058375291137686665  0.0062500081017141385  0.9992086109812853  1.0000
  Ir  Ir44      1.0  0.000837528815426809  0.0062500081017141385  0.9994749064475299  1.0000
  Ir  Ir45      1.0  0.0058375291137686665  0.0062500081017141385  0.9994762425339537  1.0000
  Ir  Ir46      1.0  0.000837528815426809  0.0062500081017141385  0.9992099467780112  1.0000
  Ir  Ir47      1.0  0.008324986931998558  0.0062500081017141385  0.999076131001677  1.0000
  Ir  Ir48      1.0  0.003324986241101624  0.0062500081017141385  0.9993424267576195  1.0000
