data_image0
_chemical_formula_structural       COGa12Pt20
_chemical_formula_sum              "C1 O1 Ga12 Pt20"
_cell_length_a       11.84393547986186
_cell_length_b       5.572155466900759
_cell_length_c       100.20380401611328
_cell_angle_alpha    91.6188400073568
_cell_angle_beta     91.86041858324768
_cell_angle_gamma    85.8686869974237

_space_group_name_H-M_alt    "P 1"
_space_group_IT_number       1

loop_
  _space_group_symop_operation_xyz
  'x, y, z'

loop_
  _atom_site_type_symbol
  _atom_site_label
  _atom_site_symmetry_multiplicity
  _atom_site_fract_x
  _atom_site_fract_y
  _atom_site_fract_z
  _atom_site_occupancy
  C   C1        1.0  0.0029768655514700684  0.008997016237164056  9.56652789023806e-05  1.0000
  O   O1        1.0  0.0029768655514700684  0.008997016237164056  0.00021542145419454223  1.0000
  Ga  Ga1       1.0  0.00014403154674151285  0.0010029838464434677  0.9993968105211443  1.0000
  Ga  Ga2       1.0  0.005769031714349751  0.0010029838210840252  0.9995852004017434  1.0000
  Ga  Ga3       1.0  0.0038951839125369258  0.008148474662409129  0.9994505864325143  1.0000
  Ga  Ga4       1.0  0.009520183912536926  0.00814847499681991  0.9996389763130354  1.0000
  Ga  Ga5       1.0  0.006392878885166855  0.003857492714066118  0.9993430345977325  1.0000
  Ga  Ga6       1.0  0.002017879200664716  0.003857492666330697  0.9995314244253289  1.0000
  Ga  Ga7       1.0  0.001394031556600821  0.0010029838449517356  0.9997735899302191  1.0000
  Ga  Ga8       1.0  0.0070190317143497515  0.0010029838210840252  0.9999619798107828  1.0000
  Ga  Ga9       1.0  0.005145183912536926  0.008148474662409129  0.9998273664363879  1.0000
  Ga  Ga10      1.0  0.0007701839125369258  0.00814847499681991  1.5756263373969172e-05  1.0000
  Ga  Ga11      1.0  0.007642878885166855  0.003857492714066118  0.999719814006772  1.0000
  Ga  Ga12      1.0  0.003267879200664716  0.003857492666330697  0.9999082038343684  1.0000
  Pt  Pt1       1.0  0.00795653171434975  0.006002983640502203  0.999491005456257  1.0000
  Pt  Pt2       1.0  0.002331531556600821  0.006002983998780695  0.9993026155762187  1.0000
  Pt  Pt3       1.0  0.00795653171434975  0.0010029838210840252  0.999491005488513  1.0000
  Pt  Pt4       1.0  0.002331531556600821  0.001002983928554431  0.9993026156080806  1.0000
  Pt  Pt5       1.0  0.005769031714349751  0.006002983473296812  0.9995852003692246  1.0000
  Pt  Pt6       1.0  0.00014403154674151285  0.006002983833067036  0.9993968104891509  1.0000
  Pt  Pt7       1.0  0.009855968285650248  0.00308998544210276  0.9996245172221628  1.0000
  Pt  Pt8       1.0  0.004230968285650249  0.00308998544210276  0.9994361276395841  1.0000
  Pt  Pt9       1.0  0.006057094512053532  0.00891598226878327  0.9993574936886052  1.0000
  Pt  Pt10      1.0  0.001682094669802463  0.00891598257932634  0.9995458832187419  1.0000
  Pt  Pt11      1.0  0.009206531714349752  0.006002983640502203  0.9998677851627135  1.0000
  Pt  Pt12      1.0  0.0035815313988518905  0.006002984022648405  0.9996793952821074  1.0000
  Pt  Pt13      1.0  0.009206531714349752  0.0010029838210840252  0.9998677851949695  1.0000
  Pt  Pt14      1.0  0.0035815313988518905  0.001002983868819446  0.9996793953138381  1.0000
  Pt  Pt15      1.0  0.0070190317143497515  0.006002983473296812  0.9999619797782641  1.0000
  Pt  Pt16      1.0  0.001394031556600821  0.006002983831575304  0.9997735898982258  1.0000
  Pt  Pt17      1.0  0.001105968443399179  0.00308998541823505  1.296875652116451e-06  1.0000
  Pt  Pt18      1.0  0.005480968285650248  0.00308998544210276  0.9998129070486236  1.0000
  Pt  Pt19      1.0  0.0073070945120535325  0.00891598226878327  0.9997342730976446  1.0000
  Pt  Pt20      1.0  0.0029320948275513934  0.00891598255545863  0.9999226632231834  1.0000
