data_image0
_chemical_formula_structural       HAl12Au6
_chemical_formula_sum              "H1 Al12 Au6"
_cell_length_a       6.092251300811768
_cell_length_b       7.461453587131585
_cell_length_c       102.80777740478516
_cell_angle_alpha    94.3477533092688
_cell_angle_beta     90.0
_cell_angle_gamma    114.09484237616877

_space_group_name_H-M_alt    "P 1"
_space_group_IT_number       1

loop_
  _space_group_symop_operation_xyz
  'x, y, z'

loop_
  _atom_site_type_symbol
  _atom_site_label
  _atom_site_symmetry_multiplicity
  _atom_site_fract_x
  _atom_site_fract_y
  _atom_site_fract_z
  _atom_site_occupancy
  H   H1        1.0  0.009698551478053881  0.006604158260205315  0.00011205337160962237  1.0000
  Al  Al1       1.0  0.008689010979017987  0.002314944021309466  0.999625053659883  1.0000
  Al  Al2       1.0  0.004522344042450064  0.003981610417224854  0.9993591221190872  1.0000
  Al  Al3       1.0  0.0027862966625877626  0.0006031968513159952  0.9998933965601188  1.0000
  Al  Al4       1.0  0.0036890108444923696  0.002314944021309466  0.999625053659883  1.0000
  Al  Al5       1.0  0.009522344176975681  0.003981610417224854  0.9993591221190872  1.0000
  Al  Al6       1.0  0.007877931135126118  0.0006017227203626224  0.9998933536633363  1.0000
  Al  Al7       1.0  0.0016056773300987793  0.008148276955833481  0.9994920880474718  1.0000
  Al  Al8       1.0  0.00030144824618774386  0.005079628053775875  2.7845641182965116e-05  1.0000
  Al  Al9       1.0  0.005772344113796684  0.006481610559918095  0.9997580192983837  1.0000
  Al  Al10      1.0  0.0066056773117543766  0.008148276955833481  0.9994920880474718  1.0000
  Al  Al11      1.0  0.0048411308208857525  0.005080275112746101  2.7951820230751982e-05  1.0000
  Al  Al12      1.0  0.0007723441321410866  0.006481610559918095  0.9997580192983837  1.0000
  Au  Au1       1.0  0.001798583002729413  0.0035345195609867226  0.9998197036672397  1.0000
  Au  Au2       1.0  0.007647344061118683  0.005231610625776514  0.9995585707094904  1.0000
  Au  Au3       1.0  0.006186047179821271  0.0023092247664080892  6.87382453461796e-05  1.0000
  Au  Au4       1.0  0.0047306775862933905  0.009398277438795224  0.9996915363495009  1.0000
  Au  Au5       1.0  0.0005640107988825078  0.0010649439499628452  0.9994256050702347  1.0000
  Au  Au6       1.0  0.008883747783031217  0.007704873622259429  0.9999554127642202  1.0000
