data_image0
_chemical_formula_structural       COCa24Au8
_chemical_formula_sum              "C1 O1 Ca24 Au8"
_cell_length_a       10.05778980255127
_cell_length_b       10.553514852800273
_cell_length_c       101.6605453491211
_cell_angle_alpha    81.85677016108828
_cell_angle_beta     90.0
_cell_angle_gamma    90.0

_space_group_name_H-M_alt    "P 1"
_space_group_IT_number       1

loop_
  _space_group_symop_operation_xyz
  'x, y, z'

loop_
  _atom_site_type_symbol
  _atom_site_label
  _atom_site_symmetry_multiplicity
  _atom_site_fract_x
  _atom_site_fract_y
  _atom_site_fract_z
  _atom_site_occupancy
  C   C1        1.0  0.0002503091918523382  0.0031227583583053778  0.9999604763047526  1.0000
  O   O1        1.0  0.0002503091918523382  0.0031227583583053778  7.851643799688632e-05  1.0000
  Ca  Ca1       1.0  0.00577621035989015  0.004951528477852603  0.9996963723887488  1.0000
  Ca  Ca2       1.0  0.005857759920676875  0.00993894804119883  0.9991795923885437  1.0000
  Ca  Ca3       1.0  0.004605509899058035  0.0017636641283492946  0.9998803599765661  1.0000
  Ca  Ca4       1.0  0.004583410295137933  0.006688280175749273  0.9993611928799059  1.0000
  Ca  Ca5       1.0  0.009749690698883037  0.008498136978376996  0.9998750375940125  1.0000
  Ca  Ca6       1.0  0.009583409939564913  0.0033117196530894877  0.9993485172724655  1.0000
  Ca  Ca7       1.0  0.0008577602762498937  0.005061051702059312  0.9990110611108598  1.0000
  Ca  Ca8       1.0  0.0008577602762498937  6.105189907302952e-05  0.9995301177621891  1.0000
  Ca  Ca9       1.0  0.007720585115315175  0.003035150904420552  0.9990018845569568  1.0000
  Ca  Ca10      1.0  0.007720585115315175  0.008035150818839933  0.9995209410600009  1.0000
  Ca  Ca11      1.0  0.002720585285693913  0.0034001173013614486  0.9995588288905156  1.0000
  Ca  Ca12      1.0  0.002720585285693913  0.00840011721578083  0.9990397719443924  1.0000
  Ca  Ca13      1.0  0.007720585115315175  0.006599882527477312  0.9991508815550111  1.0000
  Ca  Ca14      1.0  0.007720581411429559  0.0016683562016349687  0.99966084669017  1.0000
  Ca  Ca15      1.0  0.002720585285693913  0.007059141651033179  0.9996948503306988  1.0000
  Ca  Ca16      1.0  0.002720585285693913  0.0019648488317058716  0.9991887690949923  1.0000
  Ca  Ca17      1.0  0.009664959129963078  0.004951531687125836  0.9996963711689364  1.0000
  Ca  Ca18      1.0  0.009583409939564913  0.00993894804119883  0.9991795923885437  1.0000
  Ca  Ca19      1.0  0.0008356586351927021  0.0017636689422591441  0.9998803587331582  1.0000
  Ca  Ca20      1.0  0.0008577602762498937  0.006688280175749273  0.9993611928799059  1.0000
  Ca  Ca21      1.0  0.00569147879097019  0.008498133412517848  0.9998750376464474  1.0000
  Ca  Ca22      1.0  0.005857759920676875  0.0033117196530894877  0.9993485172724655  1.0000
  Ca  Ca23      1.0  0.004583410295137933  0.005061051702059312  0.9990110611108598  1.0000
  Ca  Ca24      1.0  0.004583410295137933  6.105189907302952e-05  0.9995301177621891  1.0000
  Au  Au1       1.0  0.002720585285693913  0.004639523647317292  0.999265631226792  1.0000
  Au  Au2       1.0  0.002720585656082475  0.009718510194545973  0.9997828402731996  1.0000
  Au  Au3       1.0  0.0077205873376465445  0.006652449709861161  0.9998072277859764  1.0000
  Au  Au4       1.0  0.007720585115315175  0.000859481526476179  0.9993922766712419  1.0000
  Au  Au5       1.0  0.0027205851004996322  0.004165634160264248  0.9998199521300898  1.0000
  Au  Au6       1.0  0.002720585285693913  0.009140518658948497  0.9993174334758861  1.0000
  Au  Au7       1.0  0.007720585115315175  0.005360476181521469  0.9994440792187347  1.0000
  Au  Au8       1.0  0.007720584374538052  0.0005707142856755707  0.9999375441367956  1.0000
