data_image0
_chemical_formula_structural       COSb6Pt6Sb6Pt6
_chemical_formula_sum              "C1 O1 Sb12 Pt12"
_cell_length_a       5.621406555175781
_cell_length_b       11.19741534963872
_cell_length_c       40.37442398071289
_cell_angle_alpha    100.89339399664348
_cell_angle_beta     90.0
_cell_angle_gamma    90.0

_space_group_name_H-M_alt    "P 1"
_space_group_IT_number       1

loop_
  _space_group_symop_operation_xyz
  'x, y, z'

loop_
  _atom_site_type_symbol
  _atom_site_label
  _atom_site_symmetry_multiplicity
  _atom_site_fract_x
  _atom_site_fract_y
  _atom_site_fract_z
  _atom_site_occupancy
  C   C1        1.0  0.002510915232314277  0.00412937691482604  0.0005701501520715412  1.0000
  O   O1        1.0  0.002510915232314277  0.00412937691482604  0.0008673682479449672  1.0000
  Sb  Sb1       1.0  0.0025109094337139102  0.008810584236170234  0.0003362529490962665  1.0000
  Sb  Sb2       1.0  0.0025109122501769457  0.005048330384878516  0.9997317933244674  1.0000
  Sb  Sb3       1.0  0.0025109137412456114  0.0015474517584070208  8.110535435063552e-05  1.0000
  Sb  Sb4       1.0  0.0075109171143742815  0.005922091054867713  0.00029696401856710465  1.0000
  Sb  Sb5       1.0  0.007510911812796804  0.0027496148990161814  0.9996121131058782  1.0000
  Sb  Sb6       1.0  0.007510912475493989  0.009472606988926404  0.9999974050421525  1.0000
  Pt  Pt1       1.0  0.005032683787771831  0.007218629637647523  0.9998580078639504  1.0000
  Pt  Pt2       1.0  0.004970029413788038  0.003831688588074799  0.00013328147771528276  1.0000
  Pt  Pt3       1.0  0.005010911534463986  0.0005273927298721449  0.9994956415483676  1.0000
  Pt  Pt4       1.0  0.009989088478789957  0.007218639801555417  0.9998580113492573  1.0000
  Pt  Pt5       1.0  5.1801050840516334e-05  0.0038316899432625185  0.0001332808105951087  1.0000
  Pt  Pt6       1.0  1.0911649555848551e-05  0.0005273927298721449  0.9994956415483676  1.0000
  Sb  Sb7       1.0  0.002510911587479761  0.00830517036422589  0.9993791699953207  1.0000
  Sb  Sb8       1.0  0.002510911587479761  0.004971836814062521  0.9986803402678893  1.0000
  Sb  Sb9       1.0  0.002510911587479761  0.001638503772094547  0.9990297553183495  1.0000
  Sb  Sb10      1.0  0.007510911812796804  0.00608294844917955  0.9992626984511279  1.0000
  Sb  Sb11      1.0  0.007510911812796804  0.0027496148990161814  0.9985638687236965  1.0000
  Sb  Sb12      1.0  0.007510911812796804  0.009416281321749058  0.9989132833917892  1.0000
  Pt  Pt7       1.0  0.005010911534463986  0.007194059406702719  0.9987968122166706  1.0000
  Pt  Pt8       1.0  0.005010911534463986  0.0038607258565393513  0.9991462265023466  1.0000
  Pt  Pt9       1.0  0.005010911534463986  0.0005273927298721449  0.9984473975352601  1.0000
  Pt  Pt10      1.0  1.0911649555848551e-05  0.007194059406702719  0.9987968122166706  1.0000
  Pt  Pt11      1.0  1.0911649555848551e-05  0.0038607258565393513  0.9991462265023466  1.0000
  Pt  Pt12      1.0  1.0911649555848551e-05  0.0005273927298721449  0.9984473975352601  1.0000
