data_image0
_chemical_formula_structural       HAl16Pt16
_chemical_formula_sum              "H1 Al16 Pt16"
_cell_length_a       6.988253593444824
_cell_length_b       8.558827281209656
_cell_length_c       102.4031982421875
_cell_angle_alpha    95.05115269434638
_cell_angle_beta     90.0
_cell_angle_gamma    90.0

_space_group_name_H-M_alt    "P 1"
_space_group_IT_number       1

loop_
  _space_group_symop_operation_xyz
  'x, y, z'

loop_
  _atom_site_type_symbol
  _atom_site_label
  _atom_site_symmetry_multiplicity
  _atom_site_fract_x
  _atom_site_fract_y
  _atom_site_fract_z
  _atom_site_occupancy
  H   H1        1.0  0.0033674064194977563  0.003304251905790646  0.000143971929103938  1.0000
  Al  Al1       1.0  0.009985999003441045  0.003988921698736248  0.9999795282370134  1.0000
  Al  Al2       1.0  0.00501400014363277  0.0034893419104166257  0.9993834709935457  1.0000
  Al  Al3       1.0  1.4000399135803994e-05  0.00036434186672122464  0.999581238213697  1.0000
  Al  Al4       1.0  0.005050912123526911  0.007252410164912177  0.9997767857941475  1.0000
  Al  Al5       1.0  0.0009541683899329464  0.007121821215505662  0.9996674446659017  1.0000
  Al  Al6       1.0  0.0060301460149923955  0.004005560033537933  0.9998754092486304  1.0000
  Al  Al7       1.0  0.0009124505707952616  0.0010080687411924054  5.074891523006853e-05  1.0000
  Al  Al8       1.0  0.00595416841658689  0.00024682084627952326  0.9994696775300207  1.0000
  Al  Al9       1.0  0.007514000356864316  0.0049770521192031795  0.9996057481369821  1.0000
  Al  Al10      1.0  0.002536443083723917  0.0018515943661820584  0.9998004093264904  1.0000
  Al  Al11      1.0  0.0073774447423241764  0.008724730634981288  1.2457280166030282e-07  1.0000
  Al  Al12      1.0  0.0025140001969406562  0.008102051944421575  0.9994079809152231  1.0000
  Al  Al13      1.0  0.0015738323237956854  0.003684321058202218  0.9995685612436768  1.0000
  Al  Al14      1.0  0.006573832083910196  0.0005593208506490634  0.999766328171593  1.0000
  Al  Al15      1.0  0.0016640243368840082  0.007474786110662428  0.9999665365099267  1.0000
  Al  Al16      1.0  0.006573832083910196  0.006809320883420614  0.9993707940219178  1.0000
  Pt  Pt1       1.0  1.4000399135803994e-05  0.005837216625187031  0.9994316077730804  1.0000
  Pt  Pt2       1.0  0.00501400014363277  0.002712216581491629  0.9996293749932316  1.0000
  Pt  Pt3       1.0  1.9041500034431565e-05  0.009562928152008652  0.9998196888268973  1.0000
  Pt  Pt4       1.0  0.004950724215359086  0.006518769625177634  2.7820943378515943e-06  1.0000
  Pt  Pt5       1.0  0.009062669092616184  0.0028311329599457614  0.9997422599419478  1.0000
  Pt  Pt6       1.0  0.004016627177605843  0.009753179675880519  0.9999447099079403  1.0000
  Pt  Pt7       1.0  0.009062669092616184  0.009081133047336563  0.9993467255016453  1.0000
  Pt  Pt8       1.0  0.004062669732310823  0.005956133222118167  0.9995444927234043  1.0000
  Pt  Pt9       1.0  0.0024601805546647215  0.004968078831649017  0.9997962136929901  1.0000
  Pt  Pt10      1.0  0.007511890430714077  0.0017221659666267252  0.999998052899208  1.0000
  Pt  Pt11      1.0  0.0025140001969406562  0.0012105532295347801  0.999407980887616  1.0000
  Pt  Pt12      1.0  0.007514000356864316  0.008085553434903164  0.9996057480222913  1.0000
  Pt  Pt13      1.0  0.008628414519396565  0.006263921005202843  0.9998594147174168  1.0000
  Pt  Pt14      1.0  0.0033674064194977563  0.0031253801936843044  2.299898957333453e-05  1.0000
  Pt  Pt15      1.0  0.008465330768186263  0.0025186328463377185  0.9994456092995716  1.0000
  Pt  Pt16      1.0  0.003465330874802036  0.009393632942467601  0.999643376433443  1.0000
