data_image0
_chemical_formula_structural       HAs8Ga8As8Ga8
_chemical_formula_sum              "H1 As16 Ga16"
_cell_length_a       10.07720751914082
_cell_length_b       8.228005409240723
_cell_length_c       108.15168762207031
_cell_angle_alpha    90.0
_cell_angle_beta     84.94884755219923
_cell_angle_gamma    90.0

_space_group_name_H-M_alt    "P 1"
_space_group_IT_number       1

loop_
  _space_group_symop_operation_xyz
  'x, y, z'

loop_
  _atom_site_type_symbol
  _atom_site_label
  _atom_site_symmetry_multiplicity
  _atom_site_fract_x
  _atom_site_fract_y
  _atom_site_fract_z
  _atom_site_occupancy
  H   H1        1.0  0.009340505946550542  2.4999998586545245e-10  1.7774924242743506e-05  1.0000
  As  As1       1.0  0.005537036549033117  0.0024999997917315984  0.9996884883906012  1.0000
  As  As2       1.0  0.0022378690194374104  0.002500000018110296  0.9994664710085478  1.0000
  As  As3       1.0  0.009112868529564165  0.002500000018110296  0.9992459955554319  1.0000
  As  As4       1.0  0.008325358691721829  0.002500000018110296  0.9999317008980632  1.0000
  As  As5       1.0  0.008800368737389179  1.4999999151927147e-10  0.9995767086732944  1.0000
  As  As6       1.0  0.0056753689600588355  1.4999999151927147e-10  0.999356233556028  1.0000
  As  As7       1.0  0.0025503689971704446  1.4999999151927147e-10  0.9991357576136025  1.0000
  As  As8       1.0  0.0019313534742926872  2.4999998586545245e-10  0.999809057980608  1.0000
  Ga  Ga1       1.0  0.005050369004592766  1.4999999151927147e-10  0.9991357576658981  1.0000
  Ga  Ga2       1.0  0.004367511678815682  0.010000000072441183  0.9997612572982719  1.0000
  Ga  Ga3       1.0  0.0013003690862383073  1.4999999151927147e-10  0.9995767090644839  1.0000
  Ga  Ga4       1.0  0.008175369153039205  1.4999999151927147e-10  0.9993562330556804  1.0000
  Ga  Ga5       1.0  0.008116804064335214  0.002500000018110296  0.9997033866797943  1.0000
  Ga  Ga6       1.0  0.004737868841301685  0.002500000018110296  0.9994664710623656  1.0000
  Ga  Ga7       1.0  0.0016128690639713417  0.002500000018110296  0.9992459953939783  1.0000
  Ga  Ga8       1.0  0.0006594937584121628  0.0025000002444889938  0.9998747633447435  1.0000
  As  As9       1.0  0.005537036549033117  0.007499999601573493  0.9996884883906012  1.0000
  As  As10      1.0  0.0022378690194374104  0.007500000054330888  0.9994664710085478  1.0000
  As  As11      1.0  0.009112868529564165  0.007500000054330888  0.9992459955554319  1.0000
  As  As12      1.0  0.008325358691721829  0.007500000054330888  0.9999317008980632  1.0000
  As  As13      1.0  0.008800368737389179  0.005000000036220592  0.9995767086732944  1.0000
  As  As14      1.0  0.0056753689600588355  0.005000000036220592  0.999356233556028  1.0000
  As  As15      1.0  0.0025503689971704446  0.005000000036220592  0.9991357576136025  1.0000
  As  As16      1.0  0.0019313534742926872  0.005000000036220592  0.999809057980608  1.0000
  Ga  Ga9       1.0  0.005050369004592766  0.005000000036220592  0.9991357576658981  1.0000
  Ga  Ga10      1.0  0.004367511678815682  0.004999999583463197  0.9997612572982719  1.0000
  Ga  Ga11      1.0  0.0013003690862383073  0.005000000036220592  0.9995767090644839  1.0000
  Ga  Ga12      1.0  0.008175369153039205  0.005000000036220592  0.9993562330556804  1.0000
  Ga  Ga13      1.0  0.008116804064335214  0.007500000054330888  0.9997033866797943  1.0000
  Ga  Ga14      1.0  0.004737868841301685  0.007500000054330888  0.9994664710623656  1.0000
  Ga  Ga15      1.0  0.0016128690639713417  0.007500000054330888  0.9992459953939783  1.0000
  Ga  Ga16      1.0  0.0006594937584121628  0.007500000054330888  0.9998747633447435  1.0000
