data_image0
_chemical_formula_structural       COSi16Ir16
_chemical_formula_sum              "C1 O1 Si16 Ir16"
_cell_length_a       6.479571683437178
_cell_length_b       9.100879102585386
_cell_length_c       106.40547943115234
_cell_angle_alpha    76.12570026740974
_cell_angle_beta     69.14264402536637
_cell_angle_gamma    69.15075845166118

_space_group_name_H-M_alt    "P 1"
_space_group_IT_number       1

loop_
  _space_group_symop_operation_xyz
  'x, y, z'

loop_
  _atom_site_type_symbol
  _atom_site_label
  _atom_site_symmetry_multiplicity
  _atom_site_fract_x
  _atom_site_fract_y
  _atom_site_fract_z
  _atom_site_occupancy
  C   C1        1.0  0.0015045589021534995  0.0008670976643840655  0.999948867890221  1.0000
  O   O1        1.0  0.0015045589021534995  0.0008670976643840655  6.164370569784042e-05  1.0000
  Si  Si1       1.0  0.0016117675633937011  0.005540145838784903  0.999327221054504  1.0000
  Si  Si2       1.0  0.009158837728268652  0.003039487003334156  0.9995394650243402  1.0000
  Si  Si3       1.0  0.0041117672004222965  0.008040146050816587  0.9991133841503239  1.0000
  Si  Si4       1.0  0.006845729232518684  0.0005528415848455244  0.9997477593165468  1.0000
  Si  Si5       1.0  0.0030199831458434735  0.009447158269382692  0.9997312027818794  1.0000
  Si  Si6       1.0  0.0007231381353483124  0.007099769628988655  0.9990903426006194  1.0000
  Si  Si7       1.0  0.0057231379800007365  0.002099769646657962  0.9995180164414338  1.0000
  Si  Si8       1.0  0.008223138232275029  0.004599769858689646  0.9993041795239145  1.0000
  Si  Si9       1.0  0.005966646533222239  0.00868526658545759  0.9993824010804289  1.0000
  Si  Si10      1.0  0.0034307794827499564  0.006080977706084054  0.9996014456191525  1.0000
  Si  Si11      1.0  0.008466646548630863  0.0011852668328278875  0.99916856423454  1.0000
  Si  Si12      1.0  0.0017775080528646397  0.0028188958650768323  0.9998151887717954  1.0000
  Si  Si13      1.0  0.008855658461051873  0.006329033573436128  0.9996898113357835  1.0000
  Si  Si14      1.0  0.00636825909169029  0.003954648882315969  0.9990351620385367  1.0000
  Si  Si15      1.0  0.0013682588240073736  0.008954648422913986  0.9994628358019447  1.0000
  Si  Si16      1.0  0.0038682589548236423  0.0014546491120169607  0.9992489989444941  1.0000
  Ir  Ir1       1.0  0.006880222812856311  0.009239916734309486  0.9995731347277388  1.0000
  Ir  Ir2       1.0  0.004860637687831067  0.006750171788070543  0.9997486434669908  1.0000
  Ir  Ir3       1.0  0.009527466641141616  0.0017182132197047998  0.9993504722333212  1.0000
  Ir  Ir4       1.0  0.0020274668037839473  0.0042182131004369775  0.9991366353021334  1.0000
  Ir  Ir5       1.0  0.007807439299507632  0.005921702597037572  0.9994947652696154  1.0000
  Ir  Ir6       1.0  0.005336873405632149  0.003343693498856951  0.9997075142925861  1.0000
  Ir  Ir7       1.0  0.00030743920258091483  0.008421702367336581  0.9992809283463203  1.0000
  Ir  Ir8       1.0  0.0028074388863397904  0.0009217026699234639  0.9990670912264071  1.0000
  Ir  Ir9       1.0  0.0028322461161822913  0.0009134336551057851  0.9994954725583345  1.0000
  Ir  Ir10      1.0  0.0003091926831747294  0.008327832406877381  0.9997032122419844  1.0000
  Ir  Ir11      1.0  0.005332245873345389  0.003413433591054547  0.9992816356572121  1.0000
  Ir  Ir12      1.0  0.007832246317834886  0.005913433361353556  0.9990677981844198  1.0000
  Ir  Ir13      1.0  0.0018488300311649177  0.004144908888147689  0.9995766697355705  1.0000
  Ir  Ir14      1.0  0.009692560334194349  0.0016437006476818774  0.999756141721152  1.0000
  Ir  Ir15      1.0  0.004502659307077643  0.006726482106420003  0.9993497649345457  1.0000
  Ir  Ir16      1.0  0.0070026591363214425  0.009226481876719012  0.999135928035258  1.0000
