data_image0
_chemical_formula_structural       HZr3Ga3Co3Zr3Ga3Co3Zr3Ga3Co3Zr3Ga3Co3
_chemical_formula_sum              "H1 Zr12 Ga12 Co12"
_cell_length_a       7.035768120964327
_cell_length_b       6.702338695526123
_cell_length_c       112.21460723876953
_cell_angle_alpha    90.0
_cell_angle_beta     119.9999995820685
_cell_angle_gamma    90.0

_space_group_name_H-M_alt    "P 1"
_space_group_IT_number       1

loop_
  _space_group_symop_operation_xyz
  'x, y, z'

loop_
  _atom_site_type_symbol
  _atom_site_label
  _atom_site_symmetry_multiplicity
  _atom_site_fract_x
  _atom_site_fract_y
  _atom_site_fract_z
  _atom_site_occupancy
  H   H1        1.0  0.009153926450920195  0.008750000133396671  0.0002869720113812828  1.0000
  Zr  Zr1       1.0  0.004863793854234572  0.0037499999777672213  0.9989146533693495  1.0000
  Zr  Zr2       1.0  0.0008460735643645423  0.0037499999777672213  0.9990378297976885  1.0000
  Zr  Zr3       1.0  0.006828353060508191  0.0037499999777672213  0.9992897376175269  1.0000
  Ga  Ga1       1.0  0.008217901978319444  0.0012500000389073624  0.999124953340276  1.0000
  Ga  Ga2       1.0  0.0008460735643645423  0.0012500000389073624  0.9994545219815958  1.0000
  Ga  Ga3       1.0  0.0034742449364233187  0.0012500000389073624  0.9992897379002584  1.0000
  Co  Co1       1.0  0.0041794069027927885  0.0012500000389073624  0.9990807402639175  1.0000
  Co  Co2       1.0  0.007512740011949974  0.0012500000389073624  0.999498735038211  1.0000
  Co  Co3       1.0  0.0008460735643645423  0.0037499999777672213  0.9992897376544184  1.0000
  Zr  Zr4       1.0  0.004863793854234572  0.0037499999777672213  0.9995416455413315  1.0000
  Zr  Zr5       1.0  0.0008460735643645423  0.0037499999777672213  0.9996648219696704  1.0000
  Zr  Zr6       1.0  0.006828353060508191  0.0037499999777672213  0.9999167297895089  1.0000
  Ga  Ga4       1.0  0.008217901978319444  0.0012500000389073624  0.9997519457778412  1.0000
  Ga  Ga5       1.0  0.0008460735643645423  0.0012500000389073624  8.151415357778006e-05  1.0000
  Ga  Ga6       1.0  0.0034742449364233187  0.0012500000389073624  0.9999167300722404  1.0000
  Co  Co4       1.0  0.0041794069027927885  0.0012500000389073624  0.9997077324358995  1.0000
  Co  Co5       1.0  0.007512740011949974  0.0012500000389073624  0.00012572721019294902  1.0000
  Co  Co6       1.0  0.0008460735643645423  0.0037499999777672213  0.9999167298264005  1.0000
  Zr  Zr7       1.0  0.004863793854234572  0.008750000133396671  0.9989146533693495  1.0000
  Zr  Zr8       1.0  0.0008460735643645423  0.008750000133396671  0.9990378297976885  1.0000
  Zr  Zr9       1.0  0.006828353060508191  0.008750000133396671  0.9992897376175269  1.0000
  Ga  Ga7       1.0  0.008217901978319444  0.006249999777672214  0.999124953340276  1.0000
  Ga  Ga8       1.0  0.0008460735643645423  0.006249999777672214  0.9994545219815958  1.0000
  Ga  Ga9       1.0  0.0034742449364233187  0.006249999777672214  0.9992897379002584  1.0000
  Co  Co7       1.0  0.0041794069027927885  0.006249999777672214  0.9990807402639175  1.0000
  Co  Co8       1.0  0.007512740011949974  0.006249999777672214  0.999498735038211  1.0000
  Co  Co9       1.0  0.0008460735643645423  0.008750000133396671  0.9992897376544184  1.0000
  Zr  Zr10      1.0  0.004863793854234572  0.008750000133396671  0.9995416455413315  1.0000
  Zr  Zr11      1.0  0.0008460735643645423  0.008750000133396671  0.9996648219696704  1.0000
  Zr  Zr12      1.0  0.006828353060508191  0.008750000133396671  0.9999167297895089  1.0000
  Ga  Ga10      1.0  0.008217901978319444  0.006249999777672214  0.9997519457778412  1.0000
  Ga  Ga11      1.0  0.0008460735643645423  0.006249999777672214  8.151415357778006e-05  1.0000
  Ga  Ga12      1.0  0.0034742449364233187  0.006249999777672214  0.9999167300722404  1.0000
  Co  Co10      1.0  0.0041794069027927885  0.006249999777672214  0.9997077324358995  1.0000
  Co  Co11      1.0  0.007512740011949974  0.006249999777672214  0.00012572721019294902  1.0000
  Co  Co12      1.0  0.0008460735643645423  0.008750000133396671  0.9999167298264005  1.0000
