data_image0
_chemical_formula_structural       HZr24
_chemical_formula_sum              "H1 Zr24"
_cell_length_a       5.646965503692627
_cell_length_b       10.910172133888892
_cell_length_c       102.60276794433594
_cell_angle_alpha    98.59300070937536
_cell_angle_beta     90.0
_cell_angle_gamma    75.00150916467115

_space_group_name_H-M_alt    "P 1"
_space_group_IT_number       1

loop_
  _space_group_symop_operation_xyz
  'x, y, z'

loop_
  _atom_site_type_symbol
  _atom_site_label
  _atom_site_symmetry_multiplicity
  _atom_site_fract_x
  _atom_site_fract_y
  _atom_site_fract_z
  _atom_site_occupancy
  H   H1        1.0  0.006309764988664279  0.004047136689338108  0.00020814931181388667  1.0000
  Zr  Zr1       1.0  0.008541667122864808  0.006250000143120079  0.9994637846583028  1.0000
  Zr  Zr2       1.0  0.0010416667513093176  0.0012500000286240157  0.9993843453514295  1.0000
  Zr  Zr3       1.0  0.006041667048173294  0.0012500000286240157  0.9992254666599916  1.0000
  Zr  Zr4       1.0  0.0035416669909252626  0.006250000143120079  0.9993049059668648  1.0000
  Zr  Zr5       1.0  0.003958333233149278  0.00875000020036811  0.9995035043117394  1.0000
  Zr  Zr6       1.0  0.00645833329039731  0.003750000085872047  0.9994240650048661  1.0000
  Zr  Zr7       1.0  0.0014583331584577647  0.003750000085872047  0.9992651863134282  1.0000
  Zr  Zr8       1.0  0.008958332705391097  0.00875000020036811  0.9993446256203015  1.0000
  Zr  Zr9       1.0  0.008541667122864808  0.006250000143120079  0.9997815417507155  1.0000
  Zr  Zr10      1.0  0.0010416667513093176  0.0012500000286240157  0.9997021024438424  1.0000
  Zr  Zr11      1.0  0.006041667048173294  0.0012500000286240157  0.9995432240428676  1.0000
  Zr  Zr12      1.0  0.0035416669909252626  0.006250000143120079  0.9996226633497407  1.0000
  Zr  Zr13      1.0  0.003958333233149278  0.00875000020036811  0.9998212614041522  1.0000
  Zr  Zr14      1.0  0.00645833329039731  0.003750000085872047  0.999741822097279  1.0000
  Zr  Zr15      1.0  0.0014583331584577647  0.003750000085872047  0.9995829436963042  1.0000
  Zr  Zr16      1.0  0.008958332705391097  0.00875000020036811  0.9996623830031773  1.0000
  Zr  Zr17      1.0  0.008541667122864808  0.006250000143120079  9.929913359156145e-05  1.0000
  Zr  Zr18      1.0  0.0010416667513093176  0.0012500000286240157  1.985982671831229e-05  1.0000
  Zr  Zr19      1.0  0.006041667048173294  0.0012500000286240157  0.9998609811352803  1.0000
  Zr  Zr20      1.0  0.0035416669909252626  0.006250000143120079  0.9999404204421536  1.0000
  Zr  Zr21      1.0  0.003958333233149278  0.00875000020036811  0.00013901878702818603  1.0000
  Zr  Zr22      1.0  0.00645833329039731  0.003750000085872047  5.9579480154936874e-05  1.0000
  Zr  Zr23      1.0  0.0014583331584577647  0.003750000085872047  0.999900700788717  1.0000
  Zr  Zr24      1.0  0.008958332705391097  0.00875000020036811  0.9999801400955902  1.0000
