data_image0
_chemical_formula_structural       COGa12Nb4
_chemical_formula_sum              "C1 O1 Ga12 Nb4"
_cell_length_a       5.209139347076416
_cell_length_b       5.209139202812249
_cell_length_c       102.7233657836914
_cell_angle_alpha    90.0
_cell_angle_beta     90.0
_cell_angle_gamma    116.86632000653104

_space_group_name_H-M_alt    "P 1"
_space_group_IT_number       1

loop_
  _space_group_symop_operation_xyz
  'x, y, z'

loop_
  _atom_site_type_symbol
  _atom_site_label
  _atom_site_symmetry_multiplicity
  _atom_site_fract_x
  _atom_site_fract_y
  _atom_site_fract_z
  _atom_site_occupancy
  C   C1        1.0  0.002500171466146318  0.004999824417088463  0.0001515847548049239  1.0000
  O   O1        1.0  0.002500171466146318  0.004999824417088463  0.00026840301346010744  1.0000
  Ga  Ga1       1.0  1.0811699336629402e-08  0.002499983357221973  0.9991909056439627  1.0000
  Ga  Ga2       1.0  0.0050000111035952526  0.007499983742026089  0.9994563708806649  1.0000
  Ga  Ga3       1.0  1.1089292351533792e-08  0.007499983742026089  0.9990581730256116  1.0000
  Ga  Ga4       1.0  0.005000010915395371  0.002499983357221973  0.9993236382623137  1.0000
  Ga  Ga5       1.0  0.005000010915395371  0.002499983357221973  0.9990581730256116  1.0000
  Ga  Ga6       1.0  1.1089292351533792e-08  0.007499983742026089  0.9993236382623137  1.0000
  Ga  Ga7       1.0  0.009999988920437932  0.002500010614180206  0.9997155393065084  1.0000
  Ga  Ga8       1.0  0.005000359662802208  0.0074996366166462354  0.0  1.0000
  Ga  Ga9       1.0  1.1089292351533792e-08  0.007499983742026089  0.999589103499016  1.0000
  Ga  Ga10      1.0  0.0049999774920910485  0.002500015424231659  0.999870921760085  1.0000
  Ga  Ga11      1.0  0.005000010915395371  0.002499983357221973  0.999589103499016  1.0000
  Ga  Ga12      1.0  0.009999982705322132  0.007500016610711017  0.999870921760085  1.0000
  Nb  Nb1       1.0  0.0050000111035952526  0.007499983742026089  0.9991909056439627  1.0000
  Nb  Nb2       1.0  1.0811699336629402e-08  0.002499983357221973  0.9994563708806649  1.0000
  Nb  Nb3       1.0  0.004999986012552793  0.007500003783907142  0.9997112077830049  1.0000
  Nb  Nb4       1.0  0.00999998302756041  0.0025000118166930694  0.999965943142597  1.0000
