data_image0
_chemical_formula_structural       V3Si6V3Si6H
_chemical_formula_sum              "V6 Si12 H1"
_cell_length_a       4.582750265610589
_cell_length_b       6.397007465362549
_cell_length_c       33.33799743652344
_cell_angle_alpha    90.0
_cell_angle_beta     59.999999604263245
_cell_angle_gamma    90.0

_space_group_name_H-M_alt    "P 1"
_space_group_IT_number       1

loop_
  _space_group_symop_operation_xyz
  'x, y, z'

loop_
  _atom_site_type_symbol
  _atom_site_label
  _atom_site_symmetry_multiplicity
  _atom_site_fract_x
  _atom_site_fract_y
  _atom_site_fract_z
  _atom_site_occupancy
  V   V1        1.0  0.005814209313928857  0.0033348690533977236  0.9989195123402513  1.0000
  V   V2        1.0  0.005704729498730706  0.006671869503791026  0.9995717570557618  1.0000
  V   V3        1.0  0.0011781192228020921  0.00999846367041042  0.9995717561762457  1.0000
  Si  Si1       1.0  0.007532713556803323  5.0692198370008206e-05  0.9991784017683518  1.0000
  Si  Si2       1.0  0.00918579066729816  0.006668202452730599  0.9986956648584491  1.0000
  Si  Si3       1.0  0.009085488494353868  0.003334532164555663  0.9993945948196554  1.0000
  Si  Si4       1.0  0.004071046757374118  1.5357999364240672e-06  0.9986956649803758  1.0000
  Si  Si5       1.0  0.0022128069859617735  0.006619340467781402  0.9991786933999531  1.0000
  Si  Si6       1.0  0.0025122583639197796  0.0033349421381854132  0.9998273283684153  1.0000
  V   V4        1.0  0.005814209313928857  0.0033348690533977236  0.9975448798909324  1.0000
  V   V5        1.0  0.005814209313928857  0.006668202452730599  0.9982321963390781  1.0000
  V   V6        1.0  0.0008142093397417089  1.5357999364240672e-06  0.9982321963015461  1.0000
  Si  Si7       1.0  0.007557371870483596  1.5357999364240672e-06  0.9977687276977805  1.0000
  Si  Si8       1.0  0.00918579066729816  0.006668202452730599  0.9973210319621579  1.0000
  Si  Si9       1.0  0.00918579066729816  0.0033348690533977236  0.9979925752050182  1.0000
  Si  Si10      1.0  0.004071046757374118  1.5357999364240672e-06  0.9973210320840845  1.0000
  Si  Si11      1.0  0.002442628195221846  0.006668202452730599  0.9977687278035783  1.0000
  Si  Si12      1.0  0.002442628195221846  0.0033348690533977236  0.9984718170100371  1.0000
  H   H1        1.0  0.0047053394029242124  0.0011290567484659717  0.9996837351464468  1.0000
