data_image0
_chemical_formula_structural       Sb16Rh8CO
_chemical_formula_sum              "Sb16 Rh8 C1 O1"
_cell_length_a       6.741656260700602
_cell_length_b       9.551163118138085
_cell_length_c       108.20465087890625
_cell_angle_alpha    88.85143486815957
_cell_angle_beta     108.49228925973951
_cell_angle_gamma    108.49228721961612

_space_group_name_H-M_alt    "P 1"
_space_group_IT_number       1

loop_
  _space_group_symop_operation_xyz
  'x, y, z'

loop_
  _atom_site_type_symbol
  _atom_site_label
  _atom_site_symmetry_multiplicity
  _atom_site_fract_x
  _atom_site_fract_y
  _atom_site_fract_z
  _atom_site_occupancy
  Sb  Sb1       1.0  0.006438938571860103  0.007315953795253593  0.9993201076248104  1.0000
  Sb  Sb2       1.0  0.006438938829459936  0.0023159544642006743  0.9997614545341574  1.0000
  Sb  Sb3       1.0  0.0033329824354812834  0.004069487127489302  0.9994748909990636  1.0000
  Sb  Sb4       1.0  0.0034495490940190552  0.009110638059630888  0.9999255364244914  1.0000
  Sb  Sb5       1.0  0.0032971226221207386  0.0027656999749281937  3.916096504965033e-05  1.0000
  Sb  Sb6       1.0  0.003332982032028542  0.007684044817300609  0.9995971831834232  1.0000
  Sb  Sb7       1.0  0.006401192352331039  0.005878263877047884  0.9998901006168994  1.0000
  Sb  Sb8       1.0  0.006438938669480344  0.0009305127197264877  0.9994423997259969  1.0000
  Sb  Sb9       1.0  0.008378798132371659  0.0049505593930397685  0.9993543345329565  1.0000
  Sb  Sb10      1.0  0.008378797684526595  0.009950558930557836  0.9997956817966807  1.0000
  Sb  Sb11      1.0  0.0010681933098304478  0.008141368424841507  0.00011226551490854549  1.0000
  Sb  Sb12      1.0  0.0013931231580646996  0.0036817298871100104  0.9996836831696777  1.0000
  Sb  Sb13      1.0  0.001201385616524944  0.0051855386174263825  1.6482675166708082e-06  1.0000
  Sb  Sb14      1.0  0.0013931233349976846  4.944059934682917e-05  0.9995629559235834  1.0000
  Sb  Sb15      1.0  0.008931806710932874  0.0013724438342780827  9.980237387764491e-05  1.0000
  Sb  Sb16      1.0  0.008378797950175737  0.0063182696008564215  0.9996749545524137  1.0000
  Rh  Rh1       1.0  0.007170930270077144  0.0035661544133091627  0.9995522899406857  1.0000
  Rh  Rh2       1.0  0.007288281683798729  0.008591725072408815  0.9999851529013838  1.0000
  Rh  Rh3       1.0  0.0026009905298698915  0.006439106632503611  0.9993645363742061  1.0000
  Rh  Rh4       1.0  0.002600990767379428  0.0014391068885203952  0.9998058835593122  1.0000
  Rh  Rh5       1.0  0.002600990510415401  0.00643384507465727  0.9998063477749289  1.0000
  Rh  Rh6       1.0  0.0026009906386756394  0.0014338453306740535  0.9993650007806801  1.0000
  Rh  Rh7       1.0  0.007185721777318533  0.0034402808708275806  0.9999891214007918  1.0000
  Rh  Rh8       1.0  0.007170930276191212  0.008560892392980888  0.9995527541618666  1.0000
  C   C1        1.0  0.006844737119151114  0.007234994681193497  0.00012246179851386265  1.0000
  O   O1        1.0  0.006844737119151114  0.007234994681193497  0.00023336298641311949  1.0000
