data_image0
_chemical_formula_structural       COIn3Cu3Pt6In3Cu3Pt6
_chemical_formula_sum              "C1 O1 In6 Cu6 Pt12"
_cell_length_a       5.8046464920043945
_cell_length_b       5.631999132009284
_cell_length_c       104.84478759765625
_cell_angle_alpha    92.88359291426603
_cell_angle_beta     90.0
_cell_angle_gamma    58.980661285077495

_space_group_name_H-M_alt    "P 1"
_space_group_IT_number       1

loop_
  _space_group_symop_operation_xyz
  'x, y, z'

loop_
  _atom_site_type_symbol
  _atom_site_label
  _atom_site_symmetry_multiplicity
  _atom_site_fract_x
  _atom_site_fract_y
  _atom_site_fract_z
  _atom_site_occupancy
  C   C1        1.0  0.008241284514560628  0.0002118065004220219  0.00015463118306406056  1.0000
  O   O1        1.0  0.008241284514560628  0.0002118065004220219  0.0002690857495619238  1.0000
  In  In1       1.0  0.009166666121814113  0.0033610659791600485  0.9990950193382068  1.0000
  In  In2       1.0  0.002499999788568869  0.006694399467125467  0.9988734552093462  1.0000
  In  In3       1.0  0.005833333122506235  2.773279925073642e-05  0.9993165837521516  1.0000
  Cu  Cu1       1.0  0.007499999377831404  0.006694399467125467  0.9988734552093462  1.0000
  Cu  Cu2       1.0  0.0008333332925772165  2.773279925073642e-05  0.9993165837521516  1.0000
  Cu  Cu3       1.0  0.004166666532551579  0.0033610659791600485  0.9990950193382068  1.0000
  Pt  Pt1       1.0  0.004166666404498888  0.008361065824527964  0.9990950195268163  1.0000
  Pt  Pt2       1.0  0.0074999996025291475  0.0016943994284674452  0.9988734550202143  1.0000
  Pt  Pt3       1.0  0.0008333333659289567  0.0050277327231427575  0.9993165836567216  1.0000
  Pt  Pt4       1.0  0.009166665993761423  0.008361065824527964  0.9990950195268163  1.0000
  Pt  Pt5       1.0  0.002500000013266613  0.0016943994284674452  0.9988734550202143  1.0000
  Pt  Pt6       1.0  0.005833332955191491  0.0050277327231427575  0.9993165836567216  1.0000
  In  In4       1.0  0.00916347406845635  0.003367480891185526  0.999761413915843  1.0000
  In  In5       1.0  0.002499999788568869  0.006694399467125467  0.9995381479752363  1.0000
  In  In6       1.0  0.005832545172370497  2.93086995222116e-05  7.920274724603576e-08  1.0000
  Cu  Cu4       1.0  0.007499999377831404  0.006694399467125467  0.9995381479752363  1.0000
  Cu  Cu5       1.0  0.0008610428183785407  0.009972267199541201  0.9999782097314116  1.0000
  Cu  Cu6       1.0  0.004189127760351916  0.0033162667447991664  0.9997594580104455  1.0000
  Pt  Pt7       1.0  0.004178552825195949  0.008403447386247691  0.9997584680993424  1.0000
  Pt  Pt8       1.0  0.0074999996025291475  0.0016943994284674452  0.9995381477861044  1.0000
  Pt  Pt9       1.0  0.0008835592403917519  0.005029405069136624  0.9999721865889565  1.0000
  Pt  Pt10      1.0  0.009112410104006761  0.008403433469360086  0.9997584686302377  1.0000
  Pt  Pt11      1.0  0.002500000013266613  0.0016943994284674452  0.9995381477861044  1.0000
  Pt  Pt12      1.0  0.005781441728593461  0.005029405842297046  0.9999721871595495  1.0000
