data_image0
_chemical_formula_structural       HV6Pd12V6Pd12
_chemical_formula_sum              "H1 V12 Pd24"
_cell_length_a       11.340831519348173
_cell_length_b       5.513415813446045
_cell_length_c       106.80970764160156
_cell_angle_alpha    90.0
_cell_angle_beta     112.98625229053447
_cell_angle_gamma    90.0

_space_group_name_H-M_alt    "P 1"
_space_group_IT_number       1

loop_
  _space_group_symop_operation_xyz
  'x, y, z'

loop_
  _atom_site_type_symbol
  _atom_site_label
  _atom_site_symmetry_multiplicity
  _atom_site_fract_x
  _atom_site_fract_y
  _atom_site_fract_z
  _atom_site_occupancy
  H   H1        1.0  0.008253545882467822  0.0062500001351354735  0.00034222141161077745  1.0000
  V   V1        1.0  0.003896747976753423  0.0012500000101351605  0.9997032262528317  1.0000
  V   V2        1.0  0.000563414627363347  0.0012500000101351605  0.9994160355626326  1.0000
  V   V3        1.0  0.007230081281541437  0.0012500000101351605  0.9999904169411815  1.0000
  V   V4        1.0  0.003896747976753423  0.0037500002837844953  0.0001340123150340575  1.0000
  V   V5        1.0  0.000563414627363347  0.0037500002837844953  0.9998468219038575  1.0000
  V   V6        1.0  0.007230081281541437  0.0037500002837844953  0.9995596308789791  1.0000
  Pd  Pd1       1.0  0.00502357732068424  0.0037500002837844953  0.9999398433014869  1.0000
  Pd  Pd2       1.0  0.0016902440158962262  0.0037500002837844953  0.9996526528921597  1.0000
  Pd  Pd3       1.0  0.008356910625472254  0.0037500002837844953  0.00022703426885929446  1.0000
  Pd  Pd4       1.0  0.002769918632822605  0.0012500000101351605  0.9998973955454015  1.0000
  Pd  Pd5       1.0  0.009436585242398633  0.0012500000101351605  0.9996102045186738  1.0000
  Pd  Pd6       1.0  0.006103251937610619  0.0012500000101351605  0.00018458595472867412  1.0000
  Pd  Pd7       1.0  0.0016902440158962262  0.0012500000101351605  8.343867533944087e-05  1.0000
  Pd  Pd8       1.0  0.008356910625472254  0.0012500000101351605  0.9997962482066569  1.0000
  Pd  Pd9       1.0  0.00502357732068424  0.0012500000101351605  0.9995090572392845  1.0000
  Pd  Pd10      1.0  0.002769918632822605  0.0037500002837844953  0.9994666092041765  1.0000
  Pd  Pd11      1.0  0.009436585242398633  0.0037500002837844953  4.099058087612911e-05  1.0000
  Pd  Pd12      1.0  0.006103251937610619  0.0037500002837844953  0.9997537998925263  1.0000
  V   V7        1.0  0.003896747976753423  0.0062500001351354735  0.9997032262528317  1.0000
  V   V8        1.0  0.000563414627363347  0.0062500001351354735  0.9994160355626326  1.0000
  V   V9        1.0  0.007230081281541437  0.0062500001351354735  0.9999904169411815  1.0000
  V   V10       1.0  0.003896747976753423  0.008750000324325137  0.0001340123150340575  1.0000
  V   V11       1.0  0.000563414627363347  0.008750000324325137  0.9998468219038575  1.0000
  V   V12       1.0  0.007230081281541437  0.008750000324325137  0.9995596308789791  1.0000
  Pd  Pd13      1.0  0.00502357732068424  0.008750000324325137  0.9999398433014869  1.0000
  Pd  Pd14      1.0  0.0016902440158962262  0.008750000324325137  0.9996526528921597  1.0000
  Pd  Pd15      1.0  0.008356910625472254  0.008750000324325137  0.00022703426885929446  1.0000
  Pd  Pd16      1.0  0.002769918632822605  0.0062500001351354735  0.9998973955454015  1.0000
  Pd  Pd17      1.0  0.009436585242398633  0.0062500001351354735  0.9996102045186738  1.0000
  Pd  Pd18      1.0  0.006103251937610619  0.0062500001351354735  0.00018458595472867412  1.0000
  Pd  Pd19      1.0  0.0016902440158962262  0.0062500001351354735  8.343867533944087e-05  1.0000
  Pd  Pd20      1.0  0.008356910625472254  0.0062500001351354735  0.9997962482066569  1.0000
  Pd  Pd21      1.0  0.00502357732068424  0.0062500001351354735  0.9995090572392845  1.0000
  Pd  Pd22      1.0  0.002769918632822605  0.008750000324325137  0.9994666092041765  1.0000
  Pd  Pd23      1.0  0.009436585242398633  0.008750000324325137  4.099058087612911e-05  1.0000
  Pd  Pd24      1.0  0.006103251937610619  0.008750000324325137  0.9997537998925263  1.0000
