data_image0
_chemical_formula_structural       COAl10W2Al10W2
_chemical_formula_sum              "C1 O1 Al20 W4"
_cell_length_a       4.935080143371215
_cell_length_b       8.910910606384277
_cell_length_c       104.54556274414062
_cell_angle_alpha    90.0
_cell_angle_beta     119.99999938366724
_cell_angle_gamma    90.0

_space_group_name_H-M_alt    "P 1"
_space_group_IT_number       1

loop_
  _space_group_symop_operation_xyz
  'x, y, z'

loop_
  _atom_site_type_symbol
  _atom_site_label
  _atom_site_symmetry_multiplicity
  _atom_site_fract_x
  _atom_site_fract_y
  _atom_site_fract_z
  _atom_site_occupancy
  C   C1        1.0  0.0006257965752826499  0.0013052188836485863  0.00011180778543543689  1.0000
  O   O1        1.0  0.0006257965752826499  0.0013052188836485863  0.0002265905079510094  1.0000
  Al  Al1       1.0  0.0001249881011847712  0.008749999966555245  0.9995247619536927  1.0000
  Al  Al2       1.0  0.0001249881011847712  0.003749999866220979  0.9995247619536927  1.0000
  Al  Al3       1.0  0.006791654892604374  0.008749999966555245  0.9992100612631719  1.0000
  Al  Al4       1.0  0.0034583213675110688  0.003749999866220979  0.9993674114628458  1.0000
  Al  Al5       1.0  0.0035001742888954492  0.0012500000250835663  0.9992120369363993  1.0000
  Al  Al6       1.0  0.0035001742888954492  0.006249999916388112  0.9995247616591534  1.0000
  Al  Al7       1.0  0.0001249881011847712  0.006249999916388112  0.9992120369458731  1.0000
  Al  Al8       1.0  0.0001249881011847712  0.0012500000250835663  0.999365435767379  1.0000
  Al  Al9       1.0  0.006749801971219994  0.0012500000250835663  0.9995247616908667  1.0000
  Al  Al10      1.0  0.006749801971219994  0.006249999916388112  0.9993654357896185  1.0000
  W   W1        1.0  0.006791654892604374  0.003749999866220979  0.9992100612631719  1.0000
  W   W2        1.0  0.0034583213675110688  0.008749999966555245  0.9993674114628458  1.0000
  Al  Al11      1.0  0.009875011861225916  0.008749867023653308  0.999973282077178  1.0000
  Al  Al12      1.0  0.0002105826979636862  0.0037499559699797737  4.970284939010874e-06  1.0000
  Al  Al13      1.0  0.006791654892604374  0.008749999966555245  0.9996821121722396  1.0000
  Al  Al14      1.0  0.0034563680307034632  0.003749808813056875  0.9998392956855552  1.0000
  Al  Al15      1.0  0.0035001742888954492  0.0012500000250835663  0.9996840875604015  1.0000
  Al  Al16      1.0  0.0034206784491524513  0.0061935819588341615  0.9999980950747609  1.0000
  Al  Al17      1.0  0.0001249881011847712  0.006249999916388112  0.9996840878549408  1.0000
  Al  Al18      1.0  0.00034292969703570044  0.0013041908754854975  0.9998428957608306  1.0000
  Al  Al19      1.0  0.006856044404720146  0.001306246996326535  0.9999981120832528  1.0000
  Al  Al20      1.0  0.006645178166212355  0.006196356201278349  0.9998429027909671  1.0000
  W   W3        1.0  0.006791654892604374  0.003749999866220979  0.9996821121722396  1.0000
  W   W4        1.0  0.003524357182569886  0.008749547626241107  0.9998455686326584  1.0000
