data_image0
_chemical_formula_structural       HGa4As2Rh10Ga4As2Rh10
_chemical_formula_sum              "H1 Ga8 As4 Rh20"
_cell_length_a       10.31763744354248
_cell_length_b       5.5263895988464355
_cell_length_c       98.56996154785156
_cell_angle_alpha    90.0
_cell_angle_beta     90.0
_cell_angle_gamma    90.0

_space_group_name_H-M_alt    "P 1"
_space_group_IT_number       1

loop_
  _space_group_symop_operation_xyz
  'x, y, z'

loop_
  _atom_site_type_symbol
  _atom_site_label
  _atom_site_symmetry_multiplicity
  _atom_site_fract_x
  _atom_site_fract_y
  _atom_site_fract_z
  _atom_site_occupancy
  H   H1        1.0  0.007445040887981664  0.00917041077561337  0.00011885498548657475  1.0000
  Ga  Ga1       1.0  0.004845822674445206  0.003509923503381759  0.0  1.0000
  Ga  Ga2       1.0  0.007599073587182788  0.006482523561480866  0.9999999105053173  1.0000
  Ga  Ga3       1.0  0.009846042719095147  0.0014908942972557738  6.34928491716798e-08  1.0000
  Ga  Ga4       1.0  0.0025988925370560045  0.008518232310403075  0.9999999365071508  1.0000
  As  As1       1.0  0.006222616023899819  0.00999971882310114  0.9997901930198095  1.0000
  As  As2       1.0  0.0012224551931554132  0.005000093995269412  0.999790203904298  1.0000
  Rh  Rh1       1.0  0.00229088924104249  0.0031425300098906965  0.9999878105823466  1.0000
  Rh  Rh2       1.0  0.0001539571473125044  0.006861368852407387  0.999987767044393  1.0000
  Rh  Rh3       1.0  0.005153761340647189  0.008139204340775962  0.9999877845805132  1.0000
  Rh  Rh4       1.0  0.0072910089109013395  0.001858297396545668  0.9999878142105094  1.0000
  Rh  Rh5       1.0  0.008490323020924543  0.00869607305883968  0.9997885019935933  1.0000
  Rh  Rh6       1.0  0.003954544355871482  0.0013013014437781236  0.9997884989701242  1.0000
  Rh  Rh7       1.0  0.00895452465641608  0.0036993094108775577  0.9997885113663472  1.0000
  Rh  Rh8       1.0  0.003489922085014392  0.006304623493023405  0.9997885029006339  1.0000
  Rh  Rh9       1.0  0.006222084542991583  0.0050001812900728314  0.9997836605126704  1.0000
  Rh  Rh10      1.0  0.0012219901473607075  7.53250034734695e-07  0.9997836704901182  1.0000
  Ga  Ga5       1.0  0.0047275584237320735  0.003853756500180031  0.9995825112359848  1.0000
  Ga  Ga6       1.0  0.007715428911563149  0.006146805273899303  0.9995825112359848  1.0000
  Ga  Ga7       1.0  0.00972755786047785  0.0011468055671289515  0.9995825112359848  1.0000
  Ga  Ga8       1.0  0.0027154291137569723  0.008853756459734562  0.9995825112359848  1.0000
  As  As3       1.0  0.006221493848177811  2.8105000975929783e-07  0.999375479497997  1.0000
  As  As4       1.0  0.0012214937795763348  0.005000281055562454  0.999375479497997  1.0000
  Rh  Rh11      1.0  0.002251697037315136  0.0033216424312744125  0.9995825112359848  1.0000
  Rh  Rh12      1.0  0.00019129054440380876  0.0066789200168960675  0.9995825112359848  1.0000
  Rh  Rh13      1.0  0.00519129031964371  0.008321642390828943  0.9995825112359848  1.0000
  Rh  Rh14      1.0  0.007251696654591112  0.0016789197202959634  0.9995825112359848  1.0000
  Rh  Rh15      1.0  0.008467587769681501  0.008625581325418935  0.999375479497997  1.0000
  Rh  Rh16      1.0  0.003975399926674121  0.0013749810384901516  0.999375479497997  1.0000
  Rh  Rh17      1.0  0.008975399724480297  0.003625581028818831  0.999375479497997  1.0000
  Rh  Rh18      1.0  0.003467587610814925  0.006374981082306076  0.999375479497997  1.0000
  Rh  Rh19      1.0  0.006221493848177811  0.005000281055562454  0.999375479497997  1.0000
  Rh  Rh20      1.0  0.0012214937795763348  2.8105000975929783e-07  0.999375479497997  1.0000
