data_image0
_chemical_formula_structural       HIn10Pt10
_chemical_formula_sum              "H1 In10 Pt10"
_cell_length_a       7.107274532859771
_cell_length_b       4.5098042488098145
_cell_length_c       109.12490844726562
_cell_angle_alpha    90.0
_cell_angle_beta     88.12513442040664
_cell_angle_gamma    108.49771175992468

_space_group_name_H-M_alt    "P 1"
_space_group_IT_number       1

loop_
  _space_group_symop_operation_xyz
  'x, y, z'

loop_
  _atom_site_type_symbol
  _atom_site_label
  _atom_site_symmetry_multiplicity
  _atom_site_fract_x
  _atom_site_fract_y
  _atom_site_fract_z
  _atom_site_occupancy
  H   H1        1.0  0.00504087980880995  0.002689201021285902  0.9999892587323711  1.0000
  In  In1       1.0  0.005129587303628934  0.0027335548074161396  0.998979928227646  1.0000
  In  In2       1.0  0.005804632198632478  0.008071077174895037  0.9991863623200342  1.0000
  In  In3       1.0  0.007787876081154012  0.004062699247806339  0.9993710497880145  1.0000
  In  In4       1.0  0.0008620345933889694  0.0005997785168307329  0.9991331454075332  1.0000
  In  In5       1.0  0.00273047349836535  0.0015339979693189231  0.9994242664441995  1.0000
  In  In6       1.0  0.008462920976157556  0.009400221563657577  0.9995774836072998  1.0000
  In  In7       1.0  0.0091379658711611  0.004737744091182223  0.999783917426585  1.0000
  In  In8       1.0  0.0011212090817441416  0.0007293657093806582  0.9999686051854861  1.0000
  In  In9       1.0  0.0041953679893996934  0.007266445070278645  0.9997307005146733  1.0000
  In  In10      1.0  0.006063806894376074  0.008200664522766835  2.1822097545268706e-05  1.0000
  Pt  Pt1       1.0  0.0017962540458771599  0.006066888098517379  0.9992787061989692  1.0000
  Pt  Pt2       1.0  0.0052183677991730765  0.0077779449751653375  0.9994361171103457  1.0000
  Pt  Pt3       1.0  0.008374139927577618  0.004355831171018142  0.9991212949988814  1.0000
  Pt  Pt4       1.0  0.007681394015830592  0.009009458083494095  0.9989463770039035  1.0000
  Pt  Pt5       1.0  0.002577780591427276  0.006457651371292437  0.9990134797244915  1.0000
  Pt  Pt6       1.0  0.005129587303628934  0.0027335548074161396  0.9998762613064038  1.0000
  Pt  Pt7       1.0  0.008551701471701699  0.004444611943080183  3.3672216896662135e-05  1.0000
  Pt  Pt8       1.0  0.0017074734120740686  0.0010224979261732826  0.9997188503953218  1.0000
  Pt  Pt9       1.0  0.0010147272929386195  0.005676124722048108  0.9995439321276831  1.0000
  Pt  Pt10      1.0  0.005911114263955898  0.0031243183392072825  0.9996110348310423  1.0000
