data_image0
_chemical_formula_structural       Al10Cu10H
_chemical_formula_sum              "Al10 Cu10 H1"
_cell_length_a       6.4474272182039405
_cell_length_b       6.447972061584492
_cell_length_c       100.66588592529297
_cell_angle_alpha    87.12582892411048
_cell_angle_beta     87.12354610662778
_cell_angle_gamma    65.71651153475074

_space_group_name_H-M_alt    "P 1"
_space_group_IT_number       1

loop_
  _space_group_symop_operation_xyz
  'x, y, z'

loop_
  _atom_site_type_symbol
  _atom_site_label
  _atom_site_symmetry_multiplicity
  _atom_site_fract_x
  _atom_site_fract_y
  _atom_site_fract_z
  _atom_site_occupancy
  Al  Al1       1.0  0.0062781985790743445  0.005985282023564818  0.999960597841857  1.0000
  Al  Al2       1.0  0.0022234247343216685  0.005826443602430203  0.9998470672062358  1.0000
  Al  Al3       1.0  0.008914939308989733  0.004729257336173716  0.9997063599456811  1.0000
  Al  Al4       1.0  0.00353835945649388  0.000679695265910246  0.9999177597665345  1.0000
  Al  Al5       1.0  0.009242002731849613  0.0014510176188527475  0.9999961012030723  1.0000
  Al  Al6       1.0  0.004975130938101615  0.004685219437659113  0.9995754529712424  1.0000
  Al  Al7       1.0  0.001035322856475378  0.00464118153914451  0.9994445454037703  1.0000
  Al  Al8       1.0  0.007664938881561023  0.00347925747568868  0.9993255722946097  1.0000
  Al  Al9       1.0  0.0022155486916380024  0.009575762414274902  0.9995290847091978  1.0000
  Al  Al10      1.0  0.0077347127109861314  0.009794675979082536  0.9996218210024761  1.0000
  Cu  Cu1       1.0  0.0006498689463764017  0.0002053238560361418  0.9997635461071364  1.0000
  Cu  Cu2       1.0  0.008052648088926837  0.008473548536028384  0.9998762873318005  1.0000
  Cu  Cu3       1.0  0.004982428673588255  0.00305134732340693  3.290409584845859e-05  1.0000
  Cu  Cu4       1.0  0.0062984796958238855  0.002776134080110771  0.9997955504582899  1.0000
  Cu  Cu5       1.0  0.004924356102848991  0.007892650078733113  0.9997243595142934  1.0000
  Cu  Cu6       1.0  0.00935013063356093  0.009060219107896469  0.999385058925243  1.0000
  Cu  Cu7       1.0  0.006919468509132221  0.006976812973118074  0.999483281774262  1.0000
  Cu  Cu8       1.0  0.0030307927885472475  0.0023936259022001517  0.9996676238740303  1.0000
  Cu  Cu9       1.0  0.00502590577335424  0.001477788796585112  0.9994265464281914  1.0000
  Cu  Cu10      1.0  0.0036743558053600614  0.006642649901168613  0.999343571271719  1.0000
  H   H1        1.0  0.0020941141652774057  0.0004425095609731939  0.9999896608690761  1.0000
