data_image0
_chemical_formula_structural       HAl8Pt24Al8Pt24
_chemical_formula_sum              "H1 Al16 Pt48"
_cell_length_a       5.531562328338623
_cell_length_b       16.951681012351475
_cell_length_c       103.18936920166016
_cell_angle_alpha    109.04517186954442
_cell_angle_beta     90.0
_cell_angle_gamma    90.0

_space_group_name_H-M_alt    "P 1"
_space_group_IT_number       1

loop_
  _space_group_symop_operation_xyz
  'x, y, z'

loop_
  _atom_site_type_symbol
  _atom_site_label
  _atom_site_symmetry_multiplicity
  _atom_site_fract_x
  _atom_site_fract_y
  _atom_site_fract_z
  _atom_site_occupancy
  H   H1        1.0  0.009462957749678097  0.009514424729070289  0.00029466658310242357  1.0000
  Al  Al1       1.0  1.0928550003986012e-05  0.001215503360761579  0.9995128937230227  1.0000
  Al  Al2       1.0  1.0928550003986012e-05  0.006215503286366312  0.9992448641504955  1.0000
  Al  Al3       1.0  0.005010928396291824  0.003803325774600551  0.9993835867411143  1.0000
  Al  Al4       1.0  0.005010928396291824  0.008803325002749648  0.9996516163606974  1.0000
  Al  Al5       1.0  0.005010928396291824  0.001215503360761579  0.9992448641082736  1.0000
  Al  Al6       1.0  0.005010928396291824  0.006215503286366312  0.9995128937652445  1.0000
  Al  Al7       1.0  1.0928550003986012e-05  0.003803325774600551  0.9996516163558633  1.0000
  Al  Al8       1.0  1.0928550003986012e-05  0.008803325002749648  0.9993835867459484  1.0000
  Pt  Pt1       1.0  0.007237142922472401  9.41464937782131e-06  0.9992995488493764  1.0000
  Pt  Pt2       1.0  0.007237142922472401  0.005009414646726037  0.9995675785101933  1.0000
  Pt  Pt3       1.0  1.0928550003986012e-05  0.0012742176171460617  0.9992480115407201  1.0000
  Pt  Pt4       1.0  1.0928550003986012e-05  0.0062742174265081885  0.9995160411914598  1.0000
  Pt  Pt5       1.0  0.001964623669413898  0.0025094144514384593  0.9996869845982094  1.0000
  Pt  Pt6       1.0  0.001964623669413898  0.00750941414455798  0.9994189550132195  1.0000
  Pt  Pt7       1.0  0.0030572334801039643  0.0025094144514384593  0.9994189549834602  1.0000
  Pt  Pt8       1.0  0.0030572334801039643  0.00750941414455798  0.9996869846279687  1.0000
  Pt  Pt9       1.0  0.002784713533380854  9.41464937782131e-06  0.9995969315773094  1.0000
  Pt  Pt10      1.0  0.002784713533380854  0.005009414646726037  0.9993289020086281  1.0000
  Pt  Pt11      1.0  0.006964623649210074  0.0025094144514384593  0.9997455550829631  1.0000
  Pt  Pt12      1.0  0.006964623649210074  0.00750941414455798  0.9994775252091614  1.0000
  Pt  Pt13      1.0  0.008057232954804552  0.0025094144514384593  0.9994775254682141  1.0000
  Pt  Pt14      1.0  0.008057232954804552  0.00750941414455798  0.9997455551127225  1.0000
  Pt  Pt15      1.0  0.007784713681542226  9.41464937782131e-06  0.9995675784641256  1.0000
  Pt  Pt16      1.0  0.007784713681542226  0.005009414646726037  0.9992995488954443  1.0000
  Pt  Pt17      1.0  0.005010928396291824  0.0012742176171460617  0.9995160411554691  1.0000
  Pt  Pt18      1.0  0.005010928396291824  0.0062742174265081885  0.9992480115767106  1.0000
  Pt  Pt19      1.0  1.0928550003986012e-05  0.0037446114019734624  0.9993804393024366  1.0000
  Pt  Pt20      1.0  1.0928550003986012e-05  0.008744611327578195  0.9996484689594075  1.0000
  Pt  Pt21      1.0  0.0022371434477718123  9.41464937782131e-06  0.9993289019625603  1.0000
  Pt  Pt22      1.0  0.0022371434477718123  0.005009414646726037  0.9995969316233771  1.0000
  Pt  Pt23      1.0  0.005010928396291824  0.0037446114019734624  0.9996484689171856  1.0000
  Pt  Pt24      1.0  0.005010928396291824  0.008744611327578195  0.9993804393446584  1.0000
  Al  Al9       1.0  0.00998907137473151  0.0012047289498813365  6.458061839683517e-05  1.0000
  Al  Al10      1.0  1.0928550003986012e-05  0.006215503286366312  0.9997809233799937  1.0000
  Al  Al11      1.0  0.005010928396291824  0.003803325774600551  0.9999196459706124  1.0000
  Al  Al12      1.0  0.005199588332818845  0.008794448717377973  0.0001790275458576925  1.0000
  Al  Al13      1.0  0.005010928396291824  0.001215503360761579  0.9997809233377718  1.0000
  Al  Al14      1.0  0.005032861330351629  0.006204983795520381  6.456544465032604e-05  1.0000
  Al  Al15      1.0  0.009822344035533902  0.003794733121186796  0.00017907162657353852  1.0000
  Al  Al16      1.0  1.0928550003986012e-05  0.008803325002749648  0.9999196459754466  1.0000
  Pt  Pt25      1.0  0.007237142922472401  9.41464937782131e-06  0.9998356080788746  1.0000
  Pt  Pt26      1.0  0.0072746647900134185  0.004990508949334085  0.00010983360592170995  1.0000
  Pt  Pt27      1.0  1.0928550003986012e-05  0.0012742176171460617  0.9997840707702182  1.0000
  Pt  Pt28      1.0  8.183814938934185e-05  0.006241037602106017  5.643940015268357e-05  1.0000
  Pt  Pt29      1.0  0.0019426402257953453  0.002558306788853851  0.00022114195197828323  1.0000
  Pt  Pt30      1.0  0.001964623669413898  0.00750941414455798  0.9999550142427177  1.0000
  Pt  Pt31      1.0  0.0030572334801039643  0.0025094144514384593  0.9999550142129584  1.0000
  Pt  Pt32      1.0  0.0030789216111690443  0.007558242548540234  0.0002211934287957846  1.0000
  Pt  Pt33      1.0  0.0026964906758654155  0.009955905776072386  0.00012989174544956073  1.0000
  Pt  Pt34      1.0  0.002784713533380854  0.005009414646726037  0.9998649612381263  1.0000
  Pt  Pt35      1.0  0.007076969703617775  0.002538831037723519  0.0002568163315805006  1.0000
  Pt  Pt36      1.0  0.00698272896890805  0.007444011869854228  1.3560792158598559e-06  1.0000
  Pt  Pt37      1.0  0.008039384897125794  0.002444135858867178  1.2829674558423904e-06  1.0000
  Pt  Pt38      1.0  0.007945256630366878  0.007538622656578827  0.000256896471899413  1.0000
  Pt  Pt39      1.0  0.007747127835226796  0.00999058513008816  0.00010986141845142076  1.0000
  Pt  Pt40      1.0  0.007784713681542226  0.005009414646726037  0.9998356081249424  1.0000
  Pt  Pt41      1.0  0.004939909599581122  0.001241106143396045  5.643032043695285e-05  1.0000
  Pt  Pt42      1.0  0.005010928396291824  0.0062742174265081885  0.9997840708062088  1.0000
  Pt  Pt43      1.0  1.0928550003986012e-05  0.0037446114019734624  0.9999164985319346  1.0000
  Pt  Pt44      1.0  0.009981072007547588  0.008766942927045501  0.0001811135459800555  1.0000
  Pt  Pt45      1.0  0.0022371434477718123  9.41464937782131e-06  0.9998649611920585  1.0000
  Pt  Pt46      1.0  0.0023257166732597576  0.00495585888845495  0.00012985539478768297  1.0000
  Pt  Pt47      1.0  0.005040396009595081  0.003767003912566158  0.00018105958419078607  1.0000
  Pt  Pt48      1.0  0.005010928396291824  0.008744611327578195  0.9999164985741565  1.0000
