data_image0
_chemical_formula_structural       COCa2Pb2Ca2Pb2Ca2Pb2Ca2Pb2
_chemical_formula_sum              "C1 O1 Ca8 Pb8"
_cell_length_a       7.337684631347656
_cell_length_b       5.971406092002711
_cell_length_c       105.82843780517578
_cell_angle_alpha    75.81692668674064
_cell_angle_beta     90.0
_cell_angle_gamma    90.0

_space_group_name_H-M_alt    "P 1"
_space_group_IT_number       1

loop_
  _space_group_symop_operation_xyz
  'x, y, z'

loop_
  _atom_site_type_symbol
  _atom_site_label
  _atom_site_symmetry_multiplicity
  _atom_site_fract_x
  _atom_site_fract_y
  _atom_site_fract_z
  _atom_site_occupancy
  C   C1        1.0  0.002499988678448608  0.009241479634376087  3.090988132565277e-05  1.0000
  O   O1        1.0  0.002499988678448608  0.009241479634376087  0.00014430118301704163  1.0000
  Ca  Ca1       1.0  8.300000353947715e-09  2.5473599322745364e-05  0.9992924462625592  1.0000
  Ca  Ca2       1.0  8.300000353947715e-09  0.005025473554179362  0.9990103195218437  1.0000
  Pb  Pb1       1.0  0.0025000082246247786  2.5473599322745364e-05  0.9990103194536333  1.0000
  Pb  Pb2       1.0  0.0025000082246247786  0.005025473554179362  0.9992924460491599  1.0000
  Ca  Ca3       1.0  0.00999998822152501  0.009974526136955441  0.9998620982559773  1.0000
  Ca  Ca4       1.0  0.009999991267682334  0.004881676857364982  0.9995816873282489  1.0000
  Pb  Pb3       1.0  0.0024999891861414952  0.009796785154974966  0.9995838283865565  1.0000
  Pb  Pb4       1.0  0.0024999833476732885  0.005071196542332364  0.9998743783594156  1.0000
  Ca  Ca5       1.0  0.005000008326163356  2.5473599322745364e-05  0.9992924462625592  1.0000
  Ca  Ca6       1.0  0.005000008326163356  0.005025473554179362  0.9990103195218437  1.0000
  Pb  Pb5       1.0  0.0075000084277019345  2.5473599322745364e-05  0.9990103194536333  1.0000
  Pb  Pb6       1.0  0.0075000084277019345  0.005025473554179362  0.9992924460491599  1.0000
  Ca  Ca7       1.0  0.004999988526140742  0.009974526136955441  0.9998620982559773  1.0000
  Ca  Ca8       1.0  0.004999991572298067  0.004881676857364982  0.9995816873282489  1.0000
  Pb  Pb7       1.0  0.007499989135372207  0.009796785154974966  0.9995838283865565  1.0000
  Pb  Pb8       1.0  0.0074999835507504435  0.005071196542332364  0.9998743783594156  1.0000
