data_image0
_chemical_formula_structural       HSb8Si4V16
_chemical_formula_sum              "H1 Sb8 Si4 V16"
_cell_length_a       7.394186223980795
_cell_length_b       7.394185889403125
_cell_length_c       99.96749877929688
_cell_angle_alpha    94.53782901463812
_cell_angle_beta     94.53782880887664
_cell_angle_gamma    84.16935066671954

_space_group_name_H-M_alt    "P 1"
_space_group_IT_number       1

loop_
  _space_group_symop_operation_xyz
  'x, y, z'

loop_
  _atom_site_type_symbol
  _atom_site_label
  _atom_site_symmetry_multiplicity
  _atom_site_fract_x
  _atom_site_fract_y
  _atom_site_fract_z
  _atom_site_occupancy
  H   H1        1.0  0.006301724723827184  0.0059476710093880995  0.00012375348719444374  1.0000
  Sb  Sb1       1.0  0.00877282950299129  0.006807345560871123  9.117488883786356e-05  1.0000
  Sb  Sb2       1.0  0.001903929630329061  0.009938445674056584  0.9999978008230566  1.0000
  Sb  Sb3       1.0  0.006667498600914171  0.0003412479707271679  0.9998770519690419  1.0000
  Sb  Sb4       1.0  0.00979859898719899  0.0034723478366969975  0.9997836779271788  1.0000
  Sb  Sb5       1.0  0.00020140119241379137  0.008235917195458216  0.9996629287767803  1.0000
  Sb  Sb6       1.0  0.003332501023358738  0.0013670170843776096  0.9995695547079522  1.0000
  Sb  Sb7       1.0  0.00809606986700902  0.0017698194235488396  0.9994488055791728  1.0000
  Sb  Sb8       1.0  0.0012271701212816179  0.0049009195245575165  0.999355431514063  1.0000
  Si  Si1       1.0  0.00392857123563049  0.004782703838925421  4.448814150133699e-05  1.0000
  Si  Si2       1.0  0.00464285712254757  0.005496989793681547  0.9998303646512686  1.0000
  Si  Si3       1.0  0.005357142755594994  0.006211275267393526  0.9996162417529755  1.0000
  Si  Si4       1.0  0.006071428388642419  0.006925561246503218  0.9994021185595198  1.0000
  V   V1        1.0  0.0009651761920606079  0.0035107932988482824  6.359066842969172e-05  1.0000
  V   V2        1.0  0.003670993305607463  0.00863298321598706  0.9997595220745664  1.0000
  V   V3        1.0  0.005200481821860288  0.007746099270063002  2.5385020870872466e-05  1.0000
  V   V4        1.0  0.003370946282448116  0.0025335943868975324  0.9998494677705559  1.0000
  V   V5        1.0  0.007064564451794595  0.003810840175832113  0.9999736449682528  1.0000
  V   V6        1.0  0.0015068639063834644  0.006468853456774855  0.9999012078245171  1.0000
  V   V7        1.0  0.006329006572535102  0.0030752820977868697  0.9996870846292766  1.0000
  V   V8        1.0  0.007606252229584866  0.006768900327670294  0.9998112621246761  1.0000
  V   V9        1.0  0.0023937476485576983  0.0049393647334047795  0.9996353445776881  1.0000
  V   V10       1.0  0.005099564571702311  6.155438578601327e-05  0.9993312756591916  1.0000
  V   V11       1.0  0.006629053595694448  0.009174671179575253  0.9995971389347658  1.0000
  V   V12       1.0  0.004799517548542965  0.003962165839719205  0.9994212213806869  1.0000
  V   V13       1.0  0.008493135717889445  0.005239411628653785  0.999545398876504  1.0000
  V   V14       1.0  0.002935435172478313  0.007897424909596527  0.999472961434648  1.0000
  V   V15       1.0  0.00775757783862995  0.0045038538033073975  0.9992588385390064  1.0000
  V   V16       1.0  0.009034822987940403  0.008197472334596811  0.9993830157350784  1.0000
