data_image0
_chemical_formula_structural       Co16Si8Co16Si8CO
_chemical_formula_sum              "Co32 Si16 C1 O1"
_cell_length_a       6.166957122731614
_cell_length_b       8.004711889663666
_cell_length_c       107.00173950195312
_cell_angle_alpha    106.38091107444916
_cell_angle_beta     74.46237307607021
_cell_angle_gamma    73.61908787946537

_space_group_name_H-M_alt    "P 1"
_space_group_IT_number       1

loop_
  _space_group_symop_operation_xyz
  'x, y, z'

loop_
  _atom_site_type_symbol
  _atom_site_label
  _atom_site_symmetry_multiplicity
  _atom_site_fract_x
  _atom_site_fract_y
  _atom_site_fract_z
  _atom_site_occupancy
  Co  Co1       1.0  0.005703328664049019  0.004357355508964643  0.9992450725224622  1.0000
  Co  Co2       1.0  0.000703328475953206  0.004357355508964643  0.998956901620598  1.0000
  Co  Co3       1.0  0.00929667163493771  0.005642644143856317  0.9992380776646499  1.0000
  Co  Co4       1.0  0.004296671133348877  0.005642644143856317  0.9989499067676256  1.0000
  Co  Co5       1.0  6.0684270900569186e-05  0.0006426445147066557  0.9992821110734207  1.0000
  Co  Co6       1.0  0.005060683910383596  0.0006426445147066557  0.9989939400628098  1.0000
  Co  Co7       1.0  0.004939314964137031  0.00935735572989676  0.9992010392540112  1.0000
  Co  Co8       1.0  0.009939314838739822  0.00935735572989676  0.9989128685182922  1.0000
  Co  Co9       1.0  0.007523703510085933  0.002823451962742412  0.9989734120991663  1.0000
  Co  Co10      1.0  0.0025237036354831418  0.002823451962742412  0.9992615831134072  1.0000
  Co  Co11      1.0  0.007476295403421501  0.007176547953092973  0.9989333961939397  1.0000
  Co  Co12      1.0  0.0024762961558047495  0.007176547953092973  0.9992215669199789  1.0000
  Co  Co13      1.0  0.00034715568196531184  0.0021765479951752803  0.9990988556327932  1.0000
  Co  Co14      1.0  0.005347155243075083  0.0021765479951752803  0.9993870268228588  1.0000
  Co  Co15      1.0  0.004652843795829559  0.007823451920660104  0.9993842941269109  1.0000
  Co  Co16      1.0  0.009652843670432351  0.007823451920660104  0.9990961233911919  1.0000
  Si  Si1       1.0  0.00779626636196371  0.00893600136063885  0.9993414129353175  1.0000
  Si  Si2       1.0  0.00279626711434696  0.00893600136063885  0.9990532420189339  1.0000
  Si  Si3       1.0  0.007203732584420526  0.0010639984894429294  0.9991417372768384  1.0000
  Si  Si4       1.0  0.0022037327098177336  0.0010639984894429294  0.9994299080125574  1.0000
  Si  Si5       1.0  0.0067322681619176455  0.0060639985131142275  0.999114564581557  1.0000
  Si  Si6       1.0  0.0017322686008078754  0.0060639985131142275  0.9994027353124361  1.0000
  Si  Si7       1.0  0.008267730751589786  0.0039360014027211565  0.9993685856324938  1.0000
  Si  Si8       1.0  0.003267731190480016  0.0039360014027211565  0.9990804144424281  1.0000
  Co  Co17      1.0  0.005703328664049019  0.004357355508964643  0.9998214144434069  1.0000
  Co  Co18      1.0  0.000703328475953206  0.004357355508964643  0.999533243263021  1.0000
  Co  Co19      1.0  0.00929667163493771  0.005642644143856317  0.999814419028551  1.0000
  Co  Co20      1.0  0.004296671133348877  0.005642644143856317  0.9995262484100486  1.0000
  Co  Co21      1.0  6.0684270900569186e-05  0.0006426445147066557  0.9998584524373217  1.0000
  Co  Co22      1.0  0.005060683910383596  0.0006426445147066557  0.9995702817052328  1.0000
  Co  Co23      1.0  0.004939314964137031  0.00935735572989676  0.999777381174956  1.0000
  Co  Co24      1.0  0.009939314838739822  0.00935735572989676  0.9994892098821934  1.0000
  Co  Co25      1.0  0.007523703510085933  0.002823451962742412  0.9995497537415893  1.0000
  Co  Co26      1.0  0.0025237036354831418  0.002823451962742412  0.9998379250343519  1.0000
  Co  Co27      1.0  0.007476295403421501  0.007176547953092973  0.9995097378363627  1.0000
  Co  Co28      1.0  0.0024762961558047495  0.007176547953092973  0.9997979085624019  1.0000
  Co  Co29      1.0  0.00034715568196531184  0.0021765479951752803  0.9996751975537379  1.0000
  Co  Co30      1.0  0.005347155243075083  0.0021765479951752803  0.9999633681867599  1.0000
  Co  Co31      1.0  0.004652843795829559  0.007823451920660104  0.9999606360478557  1.0000
  Co  Co32      1.0  0.009652843670432351  0.007823451920660104  0.9996724653121367  1.0000
  Si  Si9       1.0  0.00779626636196371  0.00893600136063885  0.9999177548562623  1.0000
  Si  Si10      1.0  0.00279626711434696  0.00893600136063885  0.9996295836613568  1.0000
  Si  Si11      1.0  0.007203732584420526  0.0010639984894429294  0.9997180786407395  1.0000
  Si  Si12      1.0  0.0022037327098177336  0.0010639984894429294  6.249933502181629e-06  1.0000
  Si  Si13      1.0  0.0067322681619176455  0.0060639985131142275  0.9996909065025018  1.0000
  Si  Si14      1.0  0.0017322686008078754  0.0060639985131142275  0.9999790772333809  1.0000
  Si  Si15      1.0  0.008267730751589786  0.0039360014027211565  0.9999449269963949  1.0000
  Si  Si16      1.0  0.003267731190480016  0.0039360014027211565  0.9996567563633729  1.0000
  C   C1        1.0  0.0009101874471146136  0.004233048053299365  1.3085039530723197e-05  1.0000
  O   O1        1.0  0.0009101874471146136  0.004233048053299365  0.00012523241928272486  1.0000
