data_image0
_chemical_formula_structural       COAl2Mo6Al2Mo6
_chemical_formula_sum              "C1 O1 Al4 Mo12"
_cell_length_a       4.974027633666992
_cell_length_b       4.974027633666992
_cell_length_c       104.81819152832031
_cell_angle_alpha    90.0
_cell_angle_beta     90.0
_cell_angle_gamma    90.0

_space_group_name_H-M_alt    "P 1"
_space_group_IT_number       1

loop_
  _space_group_symop_operation_xyz
  'x, y, z'

loop_
  _atom_site_type_symbol
  _atom_site_label
  _atom_site_symmetry_multiplicity
  _atom_site_fract_x
  _atom_site_fract_y
  _atom_site_fract_z
  _atom_site_occupancy
  C   C1        1.0  0.005000005332512982  0.005000007204884112  0.00013863180949039687  1.0000
  O   O1        1.0  0.005000005332512982  0.005000007204884112  0.0002531159857934467  1.0000
  Al  Al1       1.0  1.4499999979289273e-09  2.35000008284637e-09  0.999517859934106  1.0000
  Al  Al2       1.0  0.005000001587770719  0.0050000023367191716  0.9992805907437405  1.0000
  Mo  Mo1       1.0  1.4499999979289273e-09  0.0050000023367191716  0.9991619562907197  1.0000
  Mo  Mo2       1.0  1.4499999979289273e-09  0.0050000023367191716  0.9993992254810852  1.0000
  Mo  Mo3       1.0  0.005000001587770719  0.0025000022917822644  0.999517859934106  1.0000
  Mo  Mo4       1.0  0.005000001587770719  0.0075000027561303055  0.999517859934106  1.0000
  Mo  Mo5       1.0  0.0075000012582334  2.35000008284637e-09  0.9992805907437405  1.0000
  Mo  Mo6       1.0  0.002500001542833812  2.35000008284637e-09  0.9992805907437405  1.0000
  Al  Al3       1.0  8.250000302241293e-09  0.009999997932902271  0.0  1.0000
  Al  Al4       1.0  0.004999999340925362  0.005000004209090303  0.9997513217424391  1.0000
  Mo  Mo7       1.0  1.4499999979289273e-09  0.0050000023367191716  0.9996364946714507  1.0000
  Mo  Mo8       1.0  0.009999998681850725  0.005000007579358338  0.9998819208316562  1.0000
  Mo  Mo9       1.0  0.005000004209090303  0.0023708122412472972  0.9999733884154504  1.0000
  Mo  Mo10      1.0  0.00500000645593566  0.007629202355758041  0.9999733889840983  1.0000
  Mo  Mo11      1.0  0.007522880135557513  1.3150000209039559e-08  0.9997530600990776  1.0000
  Mo  Mo12      1.0  0.0024771232272210383  1.3150000209039559e-08  0.9997530600990776  1.0000
