data_image0
_chemical_formula_structural       COV4Pd8V4Pd8
_chemical_formula_sum              "C1 O1 V8 Pd16"
_cell_length_a       4.716216473506601
_cell_length_b       8.811404649011553
_cell_length_c       36.98648452758789
_cell_angle_alpha    79.46302185445958
_cell_angle_beta     108.46227327007063
_cell_angle_gamma    79.46302224926787

_space_group_name_H-M_alt    "P 1"
_space_group_IT_number       1

loop_
  _space_group_symop_operation_xyz
  'x, y, z'

loop_
  _atom_site_type_symbol
  _atom_site_label
  _atom_site_symmetry_multiplicity
  _atom_site_fract_x
  _atom_site_fract_y
  _atom_site_fract_z
  _atom_site_occupancy
  C   C1        1.0  0.009432593535499337  0.009728596105729846  0.0003898140686192031  1.0000
  O   O1        1.0  0.009432593535499337  0.009728596105729846  0.0007142571610299775  1.0000
  V   V1        1.0  0.0004048780016333798  0.0002714035448464785  0.9989336508007856  1.0000
  V   V2        1.0  0.005132526624405221  0.00032454045324985064  0.9995228439593653  1.0000
  V   V3        1.0  0.00790487891066621  0.005271403342314285  0.9992524304919302  1.0000
  V   V4        1.0  0.002612779307705399  0.005275658744017938  0.9998169793997833  1.0000
  Pd  Pd1       1.0  0.009549503184572691  0.0018691124202776309  0.9994786863281723  1.0000
  Pd  Pd2       1.0  0.00465491481583509  0.0018950899562007707  8.08060567565951e-05  1.0000
  Pd  Pd3       1.0  0.008757590607977284  0.0037273517550515858  0.9999812737799402  1.0000
  Pd  Pd4       1.0  0.0036630313681213725  0.0036575720696256937  0.9993485539340812  1.0000
  Pd  Pd5       1.0  0.007149720049210361  0.006944355320387378  0.9997844536200663  1.0000
  Pd  Pd6       1.0  0.0020951219884952654  0.006890915754327534  0.999149176821667  1.0000
  Pd  Pd7       1.0  0.0062146340791658025  0.008651891339816682  0.9990369042506567  1.0000
  Pd  Pd8       1.0  0.0013068012077328901  0.008630837784400425  0.9996767607528331  1.0000
  V   V5        1.0  0.0004048780016333798  0.0002714035448464785  0.9976585316381804  1.0000
  V   V6        1.0  0.0054048780932357925  0.0002714035448464785  0.9982960913198734  1.0000
  V   V7        1.0  0.00790487891066621  0.005271403342314285  0.9979773113293251  1.0000
  V   V8        1.0  0.00290487819450189  0.005271403342314285  0.9986148707850171  1.0000
  Pd  Pd9       1.0  0.009595122798135984  0.001890915567374739  0.9981928375227821  1.0000
  Pd  Pd10      1.0  0.004595122081971663  0.001890915567374739  0.9988303969784741  1.0000
  Pd  Pd11      1.0  0.008714634061360775  0.003651891375426737  0.9987181243932741  1.0000
  Pd  Pd12      1.0  0.0037146341779456635  0.003651891375426737  0.998080565122869  1.0000
  Pd  Pd13      1.0  0.007095122704659586  0.006890915754327534  0.998511617365975  1.0000
  Pd  Pd14      1.0  0.0020951219884952654  0.006890915754327534  0.9978740580619431  1.0000
  Pd  Pd15      1.0  0.0062146340791658025  0.008651891339816682  0.9977617850880516  1.0000
  Pd  Pd16      1.0  0.0012146341957506913  0.008651891339816682  0.9983993445773705  1.0000
