data_image0
_chemical_formula_structural       V12Sn4H
_chemical_formula_sum              "V12 Sn4 H1"
_cell_length_a       4.98288106918335
_cell_length_b       7.046857833862305
_cell_length_c       41.81256866455078
_cell_angle_alpha    90.0
_cell_angle_beta     90.0
_cell_angle_gamma    90.0

_space_group_name_H-M_alt    "P 1"
_space_group_IT_number       1

loop_
  _space_group_symop_operation_xyz
  'x, y, z'

loop_
  _atom_site_type_symbol
  _atom_site_label
  _atom_site_symmetry_multiplicity
  _atom_site_fract_x
  _atom_site_fract_y
  _atom_site_fract_z
  _atom_site_occupancy
  V   V1        1.0  1.5770000164101393e-07  0.006226929060735678  0.0  1.0000
  V   V2        1.0  1.448000021361203e-07  0.001273895113594349  0.9991831889116409  1.0000
  V   V3        1.0  1.448000021361203e-07  0.003773895118880805  0.9987618526554902  1.0000
  V   V4        1.0  0.00999985532101438  0.00870263872641378  0.9996876547116645  1.0000
  V   V5        1.0  0.005000430807248213  0.006345198708825868  0.9996877495087316  1.0000
  V   V6        1.0  0.005000144843461524  0.001273895113594349  0.9987618526554902  1.0000
  V   V7        1.0  0.005000138488710709  0.008825054541845455  0.0  1.0000
  V   V8        1.0  0.005000144843461524  0.003773895118880805  0.9991831889116409  1.0000
  V   V9        1.0  0.007496717479632979  0.002524478014078314  0.9997925384005385  1.0000
  V   V10       1.0  0.007500144559366782  0.007523894928568394  0.9989725209617556  1.0000
  V   V11       1.0  0.0025035944489179233  0.002524505503648856  0.999792564059895  1.0000
  V   V12       1.0  0.002500144753747395  0.007523894928568394  0.9989725209617556  1.0000
  Sn  Sn1       1.0  0.005000144843461524  0.005023895055443334  0.9985511847056049  1.0000
  Sn  Sn2       1.0  0.00499975197033759  0.009976104711952608  0.9993872827205605  1.0000
  Sn  Sn3       1.0  4.070999920689579e-07  0.005071056056935248  0.9993874331129001  1.0000
  Sn  Sn4       1.0  1.448000021361203e-07  2.3895100626011745e-05  0.9985511847056049  1.0000
  H   H1        1.0  0.003752012721535286  0.004434852238398759  9.890042586776978e-05  1.0000
