data_image0
_chemical_formula_structural       HTa16
_chemical_formula_sum              "H1 Ta16"
_cell_length_a       5.753463268280029
_cell_length_b       5.753463583254369
_cell_length_c       102.88378143310547
_cell_angle_alpha    90.0
_cell_angle_beta     90.0
_cell_angle_gamma    109.47122036494888

_space_group_name_H-M_alt    "P 1"
_space_group_IT_number       1

loop_
  _space_group_symop_operation_xyz
  'x, y, z'

loop_
  _atom_site_type_symbol
  _atom_site_label
  _atom_site_symmetry_multiplicity
  _atom_site_fract_x
  _atom_site_fract_y
  _atom_site_fract_z
  _atom_site_occupancy
  H   H1        1.0  0.009583333915764495  0.0020833332417649073  0.00014579601459616825  1.0000
  Ta  Ta1       1.0  0.0029166668012660948  0.003750000041205792  0.0  1.0000
  Ta  Ta2       1.0  0.00041666659236454587  0.006249999725294722  0.9997716996591741  1.0000
  Ta  Ta3       1.0  0.0029166668012660948  0.003750000041205792  0.9995433993183481  1.0000
  Ta  Ta4       1.0  0.00041666659236454587  0.006249999725294722  0.9993150986878524  1.0000
  Ta  Ta5       1.0  0.002916666693521986  0.008749999752765249  0.0  1.0000
  Ta  Ta6       1.0  0.0004166666725689314  0.001250000013735264  0.9997716996591741  1.0000
  Ta  Ta7       1.0  0.002916666693521986  0.008749999752765249  0.9995433993183481  1.0000
  Ta  Ta8       1.0  0.0004166666725689314  0.001250000013735264  0.9993150986878524  1.0000
  Ta  Ta9       1.0  0.007916667008461803  0.003750000041205792  0.0  1.0000
  Ta  Ta10      1.0  0.0054166667995602545  0.006249999725294722  0.9997716996591741  1.0000
  Ta  Ta11      1.0  0.007916667008461803  0.003750000041205792  0.9995433993183481  1.0000
  Ta  Ta12      1.0  0.0054166667995602545  0.006249999725294722  0.9993150986878524  1.0000
  Ta  Ta13      1.0  0.007916666912314952  0.008749999752765249  0.0  1.0000
  Ta  Ta14      1.0  0.005416666895707105  0.001250000013735264  0.9997716996591741  1.0000
  Ta  Ta15      1.0  0.007916666912314952  0.008749999752765249  0.9995433993183481  1.0000
  Ta  Ta16      1.0  0.005416666895707105  0.001250000013735264  0.9993150986878524  1.0000
