data_image0
_chemical_formula_structural       COCa4Ge2
_chemical_formula_sum              "C1 O1 Ca4 Ge2"
_cell_length_a       5.163009166717529
_cell_length_b       5.163009166717529
_cell_length_c       99.20639038085938
_cell_angle_alpha    90.0
_cell_angle_beta     90.0
_cell_angle_gamma    90.0

_space_group_name_H-M_alt    "P 1"
_space_group_IT_number       1

loop_
  _space_group_symop_operation_xyz
  'x, y, z'

loop_
  _atom_site_type_symbol
  _atom_site_label
  _atom_site_symmetry_multiplicity
  _atom_site_fract_x
  _atom_site_fract_y
  _atom_site_fract_z
  _atom_site_occupancy
  C   C1        1.0  0.005000023377724458  0.004999559070141485  3.506534074741717e-05  1.0000
  O   O1        1.0  0.005000023377724458  0.004999559070141485  0.00015602553567665756  1.0000
  Ca  Ca1       1.0  0.002499987878216948  0.0024999999639232647  0.9994851298514095  1.0000
  Ca  Ca2       1.0  0.007499987445296125  0.007499999711386118  0.9994851298514095  1.0000
  Ca  Ca3       1.0  0.0075000119774761105  0.007498905864772621  0.9998604704291566  1.0000
  Ca  Ca4       1.0  0.0025000351387401564  0.00250021227551035  0.9998604788405605  1.0000
  Ge  Ge1       1.0  0.007499855404445023  0.002500801047830016  0.0  1.0000
  Ge  Ge2       1.0  0.002499987878216948  0.007499999711386118  0.999669130214686  1.0000
