data_image0
_chemical_formula_structural       COCa12Al8Si8Ca12Al8Si8
_chemical_formula_sum              "C1 O1 Ca24 Al16 Si16"
_cell_length_a       6.157196456850433
_cell_length_b       19.164138574461354
_cell_length_c       106.94317626953125
_cell_angle_alpha    98.28488030849503
_cell_angle_beta     84.08721133409765
_cell_angle_gamma    81.7151200976082

_space_group_name_H-M_alt    "P 1"
_space_group_IT_number       1

loop_
  _space_group_symop_operation_xyz
  'x, y, z'

loop_
  _atom_site_type_symbol
  _atom_site_label
  _atom_site_symmetry_multiplicity
  _atom_site_fract_x
  _atom_site_fract_y
  _atom_site_fract_z
  _atom_site_occupancy
  C   C1        1.0  0.006630327115205311  0.008931510442569816  7.909374158635779e-05  1.0000
  O   O1        1.0  0.006630327115205311  0.008931510442569816  0.00019130253444852712  1.0000
  Ca  Ca1       1.0  0.007671560156423928  9.942050316543933e-06  0.9990111370678201  1.0000
  Ca  Ca2       1.0  0.002671559669810849  9.942050316543933e-06  0.9992990092761106  1.0000
  Ca  Ca3       1.0  0.006104334126907187  0.008144393379430407  0.9991013691902089  1.0000
  Ca  Ca4       1.0  0.0011043342485604576  0.008144393379430407  0.9993892413948917  1.0000
  Ca  Ca5       1.0  0.006738785171969289  0.006875491289306202  0.9993527133048754  1.0000
  Ca  Ca6       1.0  0.00173878529362256  0.006875491289306202  0.9990648409148244  1.0000
  Ca  Ca7       1.0  0.00017155955167106934  0.005009942286596104  0.9991550731607031  1.0000
  Ca  Ca8       1.0  0.005171560038284149  0.005009942286596104  0.999442945268472  1.0000
  Ca  Ca9       1.0  0.008604334174679387  0.0031443932838860064  0.9992453053096678  1.0000
  Ca  Ca10      1.0  0.003604334296332658  0.0031443932838860064  0.9989574329196168  1.0000
  Ca  Ca11      1.0  0.009238785319266907  0.0018754909947109677  0.9994966496972786  1.0000
  Ca  Ca12      1.0  0.004238785440920177  0.0018754909947109677  0.9992087770285532  1.0000
  Al  Al1       1.0  0.004828440589923374  0.0056961811833176525  0.9991748281701871  1.0000
  Al  Al2       1.0  0.009828440468270104  0.0056961811833176525  0.9994627005602381  1.0000
  Al  Al3       1.0  0.008014679317219452  0.009323703485418956  0.9992792543212894  1.0000
  Al  Al4       1.0  0.003014679438872723  0.009323703485418956  0.9989913819312385  1.0000
  Al  Al5       1.0  0.0023284405049783783  0.0006961809882478349  0.9990308918985339  1.0000
  Al  Al6       1.0  0.0073284406874582824  0.0006961809882478349  0.9993187640081066  1.0000
  Al  Al7       1.0  0.005514679486644922  0.004323703389874556  0.9991353183293717  1.0000
  Al  Al8       1.0  0.0005146790000318434  0.004323703389874556  0.9994231905376623  1.0000
  Si  Si1       1.0  0.0069501142575089945  0.006452833118226794  0.9990526738473996  1.0000
  Si  Si2       1.0  0.0019501143791622645  0.006452833118226794  0.9993405460520824  1.0000
  Si  Si3       1.0  0.005893005041367483  0.008567051550509816  0.9994014086476846  1.0000
  Si  Si4       1.0  0.000893005163020753  0.008567051550509816  0.9991135362576337  1.0000
  Si  Si5       1.0  0.009450114305281193  0.0014528330226823935  0.9991966099668586  1.0000
  Si  Si6       1.0  0.004450114426934464  0.0014528330226823935  0.9994844821715414  1.0000
  Si  Si7       1.0  0.008393005089139684  0.0035670514549654146  0.9989696001724098  1.0000
  Si  Si8       1.0  0.0033930052107929536  0.0035670514549654146  0.9992574723770925  1.0000
  Ca  Ca13      1.0  0.007671560156423928  9.942050316543933e-06  0.9995868813838795  1.0000
  Ca  Ca14      1.0  0.0027281227559150167  0.009990058000037097  0.9998895206174124  1.0000
  Ca  Ca15      1.0  0.006104334126907187  0.008144393379430407  0.999677114063617  1.0000
  Ca  Ca16      1.0  0.0011166290820888805  0.008125257428462469  0.9999646613921926  1.0000
  Ca  Ca17      1.0  0.0067607567346538435  0.0068754443133094015  0.9999297779878871  1.0000
  Ca  Ca18      1.0  0.00173878529362256  0.006875491289306202  0.9996405855095583  1.0000
  Ca  Ca19      1.0  0.00017155955167106934  0.005009942286596104  0.9997308177554368  1.0000
  Ca  Ca20      1.0  0.005001243995252835  0.0049399751222764495  1.0130025142751321e-05  1.0000
  Ca  Ca21      1.0  0.008544888636775053  0.003153623669155679  0.9998158084449895  1.0000
  Ca  Ca22      1.0  0.003604334296332658  0.0031443932838860064  0.9995331775143506  1.0000
  Ca  Ca23      1.0  0.009244412945495979  0.0018551458099270786  6.424057531873007e-05  1.0000
  Ca  Ca24      1.0  0.004238785440920177  0.0018754909947109677  0.999784521623287  1.0000
  Al  Al9       1.0  0.004828440589923374  0.0056961811833176525  0.9997505730435953  1.0000
  Al  Al10      1.0  0.00974731501664144  0.005575500643739952  3.076333741559592e-05  1.0000
  Al  Al11      1.0  0.007944786828607983  0.009285677610313781  0.9998586203095068  1.0000
  Al  Al12      1.0  0.003014679438872723  0.009323703485418956  0.9995671265259722  1.0000
  Al  Al13      1.0  0.0023284405049783783  0.0006961809882478349  0.9996066364932676  1.0000
  Al  Al14      1.0  0.007224360681843541  0.0006886959802152262  0.9998984266456133  1.0000
  Al  Al15      1.0  0.005514679486644922  0.004323703389874556  0.9997110626454312  1.0000
  Al  Al16      1.0  0.0002883547431511332  0.004171952607531528  2.319645219540798e-05  1.0000
  Si  Si9       1.0  0.0069501142575089945  0.006452833118226794  0.9996284187208078  1.0000
  Si  Si10      1.0  0.0019442157613041358  0.0063797273203581835  0.9999244016367904  1.0000
  Si  Si11      1.0  0.005774381624614014  0.008523418015311972  0.9999667895119864  1.0000
  Si  Si12      1.0  0.000893005163020753  0.008567051550509816  0.9996892808523674  1.0000
  Si  Si13      1.0  0.009450114305281193  0.0014528330226823935  0.9997723548402667  1.0000
  Si  Si14      1.0  0.0042239897003368155  0.0014091215590830775  4.525034032177008e-05  1.0000
  Si  Si15      1.0  0.008393005089139684  0.0035670514549654146  0.9995453450458179  1.0000
  Si  Si16      1.0  0.003186499016772381  0.003651560477006565  0.9998340322593416  1.0000
