data_image0
_chemical_formula_structural       COCa20Au8Ca20Au8
_chemical_formula_sum              "C1 O1 Ca40 Au16"
_cell_length_a       17.10023307800293
_cell_length_b       7.938951686220735
_cell_length_c       104.87271118164062
_cell_angle_alpha    90.0
_cell_angle_beta     90.0
_cell_angle_gamma    97.72423385717993

_space_group_name_H-M_alt    "P 1"
_space_group_IT_number       1

loop_
  _space_group_symop_operation_xyz
  'x, y, z'

loop_
  _atom_site_type_symbol
  _atom_site_label
  _atom_site_symmetry_multiplicity
  _atom_site_fract_x
  _atom_site_fract_y
  _atom_site_fract_z
  _atom_site_occupancy
  C   C1        1.0  0.009504754275312575  0.00105764447262661  0.00016048677072308816  1.0000
  O   O1        1.0  0.009504754275312575  0.00105764447262661  0.00027491086235609865  1.0000
  Ca  Ca1       1.0  0.003266928400895474  0.0018463854535313447  0.9992264105930754  1.0000
  Ca  Ca2       1.0  0.002639940985882385  0.0031844374504829977  0.9988938864281912  1.0000
  Ca  Ca3       1.0  0.0026399410634275317  0.008184437715664713  0.999000243327526  1.0000
  Ca  Ca4       1.0  0.0032669282310420125  0.0068463852451742845  0.9993327674924101  1.0000
  Ca  Ca5       1.0  0.0004534346537010014  0.007515411243650111  0.9990004405457681  1.0000
  Ca  Ca6       1.0  0.005453434549607755  0.0025154114520071712  0.9992262130906572  1.0000
  Ca  Ca7       1.0  0.004542457624629289  0.005805284678327915  0.9990193411009236  1.0000
  Ca  Ca8       1.0  0.001364411778765387  0.009225538282511082  0.9993518652658078  1.0000
  Ca  Ca9       1.0  0.0013644117307685837  0.004225538490868142  0.9992073125355015  1.0000
  Ca  Ca10      1.0  0.004542457772321493  0.0008052845315308938  0.9988747883706175  1.0000
  Ca  Ca11      1.0  0.008266928113333126  0.0018463854535313447  0.9988938864281912  1.0000
  Ca  Ca12      1.0  0.007639940916170301  0.0031844374504829977  0.9992264105930754  1.0000
  Ca  Ca13      1.0  0.007639941211565712  0.008184437715664713  0.9993327674924101  1.0000
  Ca  Ca14      1.0  0.008266928379180192  0.0068463852451742845  0.999000243327526  1.0000
  Ca  Ca15      1.0  0.005453434815454823  0.007515411243650111  0.9993329647106521  1.0000
  Ca  Ca16      1.0  0.00045343464655112287  0.0025154114520071712  0.9988936889257731  1.0000
  Ca  Ca17      1.0  0.009542457554917205  0.005805284678327915  0.9993518652658078  1.0000
  Ca  Ca18      1.0  0.006364412035828699  0.009225538282511082  0.9990193411009236  1.0000
  Ca  Ca19      1.0  0.006364411769981632  0.004225538490868142  0.9988747883706175  1.0000
  Ca  Ca20      1.0  0.00954245726690888  0.0008052845315308938  0.9992073125355015  1.0000
  Au  Au1       1.0  0.004351884551547573  0.004201862499220366  0.9987519535177314  1.0000
  Au  Au2       1.0  0.001554984729998697  0.0008289604639863231  0.9990844776826155  1.0000
  Au  Au3       1.0  0.0015549848038503007  0.005828960669975691  0.9988096517889257  1.0000
  Au  Au4       1.0  0.00435188481739464  0.009201862290863306  0.9991421759538097  1.0000
  Au  Au5       1.0  0.009351884481835488  0.004201862499220366  0.9990844776826155  1.0000
  Au  Au6       1.0  0.006554984987062009  0.0008289604639863231  0.9987519535177314  1.0000
  Au  Au7       1.0  0.006554984843063348  0.005828960669975691  0.9991421759538097  1.0000
  Au  Au8       1.0  0.009351884747682554  0.009201862290863306  0.9988096517889257  1.0000
  Ca  Ca21      1.0  0.003245885086471341  0.0018599897489841421  0.9998859208982025  1.0000
  Ca  Ca22      1.0  0.002639940985882385  0.0031844374504829977  0.9995589347579594  1.0000
  Ca  Ca23      1.0  0.0026399410634275317  0.008184437715664713  0.9996652916572941  1.0000
  Ca  Ca24      1.0  0.0032994945155238853  0.006888756074100803  0.9999859975048153  1.0000
  Ca  Ca25      1.0  0.0004534346537010014  0.007515411243650111  0.9996654888755362  1.0000
  Ca  Ca26      1.0  0.005453409825346359  0.0025154062430806515  0.9998997608446344  1.0000
  Ca  Ca27      1.0  0.004542457624629289  0.005805284678327915  0.9996843894306918  1.0000
  Ca  Ca28      1.0  0.0013948733007652055  0.009104517872065553  0.0  1.0000
  Ca  Ca29      1.0  0.0013603191045352134  0.0042843837337597414  0.999864304755841  1.0000
  Ca  Ca30      1.0  0.004542457772321493  0.0008052845315308938  0.9995398369845617  1.0000
  Ca  Ca31      1.0  0.008266928113333126  0.0018463854535313447  0.9995589347579594  1.0000
  Ca  Ca32      1.0  0.007660968620621587  0.0031709041858463765  0.9998859254450208  1.0000
  Ca  Ca33      1.0  0.007607402395303778  0.008142098613836085  0.999985992957997  1.0000
  Ca  Ca34      1.0  0.008266928379180192  0.0068463852451742845  0.9996652916572941  1.0000
  Ca  Ca35      1.0  0.005453451416672504  0.0075154259233521205  0.9999916628403676  1.0000
  Ca  Ca36      1.0  0.00045343464655112287  0.0025154114520071712  0.9995587375397174  1.0000
  Ca  Ca37      1.0  0.009511986260350706  0.005926316927242806  0.9999999948848295  1.0000
  Ca  Ca38      1.0  0.006364412035828699  0.009225538282511082  0.9996843894306918  1.0000
  Ca  Ca39      1.0  0.006364411769981632  0.004225538490868142  0.9995398369845617  1.0000
  Ca  Ca40      1.0  0.009546565621490321  0.0007464731466616714  0.9998643030507841  1.0000
  Au  Au9       1.0  0.004351884551547573  0.004201862499220366  0.9994170018474996  1.0000
  Au  Au10      1.0  0.0015589785187932414  0.0008836638407943547  0.999751154341673  1.0000
  Au  Au11      1.0  0.0015549848038503007  0.005828960669975691  0.9994747004028699  1.0000
  Au  Au12      1.0  0.004390384281757702  0.009253527265317063  0.9998123914583545  1.0000
  Au  Au13      1.0  0.009347879050876045  0.004147154091062855  0.9997511514999117  1.0000
  Au  Au14      1.0  0.006554984987062009  0.0008289604639863231  0.9994170018474996  1.0000
  Au  Au15      1.0  0.006516474574281958  0.00577726917735056  0.9998123914583545  1.0000
  Au  Au16      1.0  0.009351884747682554  0.009201862290863306  0.9994747004028699  1.0000
