data_image0
_chemical_formula_structural       COPd6Zn18
_chemical_formula_sum              "C1 O1 Pd6 Zn18"
_cell_length_a       7.306722395242459
_cell_length_b       4.9530864894807
_cell_length_c       104.97830963134766
_cell_angle_alpha    91.9130026833602
_cell_angle_beta     91.29665745832483
_cell_angle_gamma    85.41705873809265

_space_group_name_H-M_alt    "P 1"
_space_group_IT_number       1

loop_
  _space_group_symop_operation_xyz
  'x, y, z'

loop_
  _atom_site_type_symbol
  _atom_site_label
  _atom_site_symmetry_multiplicity
  _atom_site_fract_x
  _atom_site_fract_y
  _atom_site_fract_z
  _atom_site_occupancy
  C   C1        1.0  0.008834134945945479  0.001864867509299599  7.115831674378335e-05  1.0000
  O   O1        1.0  0.008834134945945479  0.001864867509299599  0.00018546787612643638  1.0000
  Pd  Pd1       1.0  0.0003571428536714059  0.000928973080529657  0.999642547323775  1.0000
  Pd  Pd2       1.0  0.009106224078739341  0.004231927497326754  0.9999441196998661  1.0000
  Pd  Pd3       1.0  0.004642423052130382  0.00767386343310336  0.9997901082745697  1.0000
  Pd  Pd4       1.0  0.007499999959073417  0.0009289730983457658  0.9991665535104541  1.0000
  Pd  Pd5       1.0  0.006071428416492221  0.004262306654281508  0.9994838828529136  1.0000
  Pd  Pd6       1.0  0.0017857141724353504  0.007595640149019911  0.9993252180401441  1.0000
  Zn  Zn1       1.0  0.005508444385979456  0.0022326109096661106  0.9999342911896462  1.0000
  Zn  Zn2       1.0  0.0010990271145488568  0.005958746455735191  0.9997586837951875  1.0000
  Zn  Zn3       1.0  0.0067857139319916744  0.009262307034433207  0.9996028808533618  1.0000
  Zn  Zn4       1.0  0.0025692447806983424  0.005528269254994748  0.9999942350893137  1.0000
  Zn  Zn5       1.0  0.008466728824323984  0.009275397806393037  0.9998679636731505  1.0000
  Zn  Zn6       1.0  0.003928571358411572  0.0025956398300655513  0.9996822133432538  1.0000
  Zn  Zn7       1.0  0.006093747728574639  0.007039206002133057  2.0684784672169587e-05  1.0000
  Zn  Zn8       1.0  0.0019352599070079275  0.0007246022883743621  0.9998983652817142  1.0000
  Zn  Zn9       1.0  0.007499999959073417  0.004262306662456298  0.9997218793630143  1.0000
  Zn  Zn10      1.0  0.002499999815830376  0.0025956398218907615  0.9994442162653725  1.0000
  Zn  Zn11      1.0  0.00821428547457287  0.005928973478497465  0.999285552078683  1.0000
  Zn  Zn12      1.0  0.003928571358411572  0.009262306958286613  0.9991268872660913  1.0000
  Zn  Zn13      1.0  0.009642856505571777  0.005928973546469268  0.9995235488719624  1.0000
  Zn  Zn14      1.0  0.005357142900992768  0.009262306966461404  0.9993648843439726  1.0000
  Zn  Zn15      1.0  0.0010714285290403247  0.0025956397838174648  0.9992062197556276  1.0000
  Zn  Zn16      1.0  0.003214285587120974  0.0075956401721439535  0.9995632148339572  1.0000
  Zn  Zn17      1.0  0.008928570990072325  0.0009289731663175693  0.9994045503037335  1.0000
  Zn  Zn18      1.0  0.004642856873911026  0.004262306646106719  0.9992458857750323  1.0000
