data_image0
_chemical_formula_structural       COMn8Ga8Ge8
_chemical_formula_sum              "C1 O1 Mn8 Ga8 Ge8"
_cell_length_a       5.54559850692749
_cell_length_b       9.798525988332187
_cell_length_c       102.31283569335938
_cell_angle_alpha    87.28446552311415
_cell_angle_beta     90.0
_cell_angle_gamma    55.53084252884981

_space_group_name_H-M_alt    "P 1"
_space_group_IT_number       1

loop_
  _space_group_symop_operation_xyz
  'x, y, z'

loop_
  _atom_site_type_symbol
  _atom_site_label
  _atom_site_symmetry_multiplicity
  _atom_site_fract_x
  _atom_site_fract_y
  _atom_site_fract_z
  _atom_site_occupancy
  C   C1        1.0  0.008850033993319607  0.008740966726115183  0.00012680300234454742  1.0000
  O   O1        1.0  0.008850033993319607  0.008740966726115183  0.00024409057664910686  1.0000
  Mn  Mn1       1.0  0.007577367239031104  0.007510869982789809  0.999368091474253  1.0000
  Mn  Mn2       1.0  0.005077368181179282  0.005010869927359842  0.9995654813763467  1.0000
  Mn  Mn3       1.0  0.0004418032483728847  0.009679075494964476  0.9999560251307983  1.0000
  Mn  Mn4       1.0  0.0028397707127289923  0.0023324599781597063  0.9997558111029909  1.0000
  Mn  Mn5       1.0  7.736806026316233e-05  0.005010869927359842  0.9995654813763467  1.0000
  Mn  Mn6       1.0  0.0076754638160643224  0.0023323509658915616  0.9997557981984484  1.0000
  Mn  Mn7       1.0  0.002577368125749316  0.007510869982789809  0.999368091474253  1.0000
  Mn  Mn8       1.0  0.005381763534050159  0.009678765087150099  0.9999560842138999  1.0000
  Ga  Ga1       1.0  0.007931601111008275  0.009657486446707945  0.999754780787335  1.0000
  Ga  Ga2       1.0  0.0054526580620298136  0.007139596369476116  0.9999412630885888  1.0000
  Ga  Ga3       1.0  0.0003085037942896198  0.00227973430081438  0.9995472318838706  1.0000
  Ga  Ga4       1.0  0.0028085038597757727  0.004779734356244347  0.9993498419817769  1.0000
  Ga  Ga5       1.0  0.004846231775396604  0.007742005553905303  0.9995837308688228  1.0000
  Ga  Ga6       1.0  0.0025653633866239605  0.005029741521491396  0.9997834910872737  1.0000
  Ga  Ga7       1.0  0.00734623281396983  0.00024200540205028946  0.9993863409356281  1.0000
  Ga  Ga8       1.0  0.00041273799666904785  0.002177015412531394  0.9999637479324525  1.0000
  Ge  Ge1       1.0  0.009922630683748346  0.007665606430591571  0.9995776986395113  1.0000
  Ge  Ge2       1.0  0.0077227546444006805  0.004870890322483565  0.9997706612117384  1.0000
  Ge  Ge3       1.0  0.002422631498799924  0.00016560659630407616  0.9993803089961618  1.0000
  Ge  Ge4       1.0  0.00546460765282464  0.002125613587561078  0.9999707966753925  1.0000
  Ge  Ge5       1.0  0.0027543736396189616  0.009834393033585416  0.9997555731866463  1.0000
  Ge  Ge6       1.0  0.00035628164146719855  0.007235314683903741  0.9999595899475495  1.0000
  Ge  Ge7       1.0  0.0052321050228502025  0.0023561331931699165  0.9995532641142301  1.0000
  Ge  Ge8       1.0  0.007732104311660218  0.004856133017641689  0.9993558742131843  1.0000
