data_image0
_chemical_formula_structural       COAl12Au12
_chemical_formula_sum              "C1 O1 Al12 Au12"
_cell_length_a       6.4900121373506625
_cell_length_b       9.411754590307877
_cell_length_c       40.79633331298828
_cell_angle_alpha    74.79182252019125
_cell_angle_beta     87.79990933739612
_cell_angle_gamma    88.29350567469582

_space_group_name_H-M_alt    "P 1"
_space_group_IT_number       1

loop_
  _space_group_symop_operation_xyz
  'x, y, z'

loop_
  _atom_site_type_symbol
  _atom_site_label
  _atom_site_symmetry_multiplicity
  _atom_site_fract_x
  _atom_site_fract_y
  _atom_site_fract_z
  _atom_site_occupancy
  C   C1        1.0  0.007679419600968667  0.009145314905290027  0.9998091209452618  1.0000
  O   O1        1.0  0.007679419600968667  0.009145314905290027  0.00010326489256970645  1.0000
  Al  Al1       1.0  0.008779828994630295  0.006790120454272622  0.999242369221595  1.0000
  Al  Al2       1.0  0.008212266375671365  0.0036892241451063935  0.9979764265124168  1.0000
  Al  Al3       1.0  0.00821226663760492  0.0003558907584388674  0.9985729601715896  1.0000
  Al  Al4       1.0  0.0018065337441983092  0.005686290981140137  0.9977964164322626  1.0000
  Al  Al5       1.0  0.0018065338654609444  0.0023529574919068565  0.998392950463759  1.0000
  Al  Al6       1.0  0.0018672957334968314  0.008736120211291888  0.9990684034054913  1.0000
  Al  Al7       1.0  0.003062381656700538  0.005863454450328426  0.9987177267036962  1.0000
  Al  Al8       1.0  0.00338519371213763  0.002865994063750121  0.9992127477317431  1.0000
  Al  Al9       1.0  0.0032027837718668537  0.009115730838997195  0.9981290821332756  1.0000
  Al  Al10      1.0  0.006816016691647928  0.006926450855452878  0.9982402949695588  1.0000
  Al  Al11      1.0  0.007140733473683511  0.003294631737608429  0.9988323810714379  1.0000
  Al  Al12      1.0  0.007764103272536745  0.00964410940156371  0.9993689311763142  1.0000
  Au  Au1       1.0  0.005178355705044914  0.0076512075556978325  0.9994398938796598  1.0000
  Au  Au2       1.0  0.004787811022343573  0.004495598570331186  0.9982650443625475  1.0000
  Au  Au3       1.0  0.004863373237874709  0.0009233715919024347  0.9989292166036772  1.0000
  Au  Au4       1.0  0.005666997917557592  0.00500886263301843  0.9992040888475443  1.0000
  Au  Au5       1.0  0.005230989359459657  0.0015465831692478185  0.9981043326065621  1.0000
  Au  Au6       1.0  0.005230988838528382  0.008213249840017115  0.9987008663985325  1.0000
  Au  Au7       1.0  4.122605746625677e-05  0.008225820298916192  0.9978105651290976  1.0000
  Au  Au8       1.0  4.122604720130497e-05  0.004892487014814421  0.9984070987837255  1.0000
  Au  Au9       1.0  0.000389298343202061  0.0014219990085616706  0.9990248178171884  1.0000
  Au  Au10      1.0  2.242594626720397e-05  0.004288851855376102  0.9991813698703466  1.0000
  Au  Au11      1.0  0.009977574765422199  0.001149694724764584  0.997962278182753  1.0000
  Au  Au12      1.0  0.009977574244490924  0.00781636139553388  0.9985588119747234  1.0000
