data_image0
_chemical_formula_structural       CONa6Sn2
_chemical_formula_sum              "C1 O1 Na6 Sn2"
_cell_length_a       5.975959970797496
_cell_length_b       4.970526618748741
_cell_length_c       101.04461669921875
_cell_angle_alpha    94.59170168460656
_cell_angle_beta     92.56783090820713
_cell_angle_gamma    65.42545181055844

_space_group_name_H-M_alt    "P 1"
_space_group_IT_number       1

loop_
  _space_group_symop_operation_xyz
  'x, y, z'

loop_
  _atom_site_type_symbol
  _atom_site_label
  _atom_site_symmetry_multiplicity
  _atom_site_fract_x
  _atom_site_fract_y
  _atom_site_fract_z
  _atom_site_occupancy
  C   C1        1.0  0.0005931249936109187  0.00809377144784876  5.8693062733821103e-05  1.0000
  O   O1        1.0  0.0005931249936109187  0.00809377144784876  0.00017745272268102788  1.0000
  Na  Na1       1.0  0.003613219107273036  0.006383618898700652  0.9999312403135792  1.0000
  Na  Na2       1.0  0.0013810194495917831  0.0021439455289609627  0.9997182494124576  1.0000
  Na  Na3       1.0  0.009406874660199592  0.003641857403823707  3.9266797262183965e-05  1.0000
  Na  Na4       1.0  0.009238162469301698  0.007858230888241903  0.9994987944391494  1.0000
  Na  Na5       1.0  0.007095305063986895  0.0035725166174580825  0.9992793395546543  1.0000
  Na  Na6       1.0  0.005309590788065806  0.005001088200114686  0.9996085217778449  1.0000
  Sn  Sn1       1.0  0.0074920964871262805  0.009284626507868973  0.9998421849534668  1.0000
  Sn  Sn2       1.0  0.0031667337255128726  0.0007153739463043594  0.9993890668943249  1.0000
