data_image0
_chemical_formula_structural       HIn5Ag15
_chemical_formula_sum              "H1 In5 Ag15"
_cell_length_a       9.611983102510917
_cell_length_b       6.0791521072387695
_cell_length_c       99.7816390991211
_cell_angle_alpha    90.0
_cell_angle_beta     104.96321775334346
_cell_angle_gamma    71.56505048515528

_space_group_name_H-M_alt    "P 1"
_space_group_IT_number       1

loop_
  _space_group_symop_operation_xyz
  'x, y, z'

loop_
  _atom_site_type_symbol
  _atom_site_label
  _atom_site_symmetry_multiplicity
  _atom_site_fract_x
  _atom_site_fract_y
  _atom_site_fract_z
  _atom_site_occupancy
  H   H1        1.0  0.00903724402167002  0.005731377577364949  0.00034169932407805145  1.0000
  In  In1       1.0  0.005500000067929393  0.002500000068985313  0.0001367979027650548  1.0000
  In  In2       1.0  0.00950000027171757  0.0004999999670912249  0.9999875635472049  1.0000
  In  In3       1.0  0.0015000000764205667  0.004500000064739726  0.9995398613325928  1.0000
  In  In4       1.0  0.0035000001783146556  0.00850000011184031  0.9998383294709812  1.0000
  In  In5       1.0  0.007500000169823481  0.006500000116085897  0.9996890954088165  1.0000
  Ag  Ag1       1.0  0.006500000118876437  0.004500000092535606  0.999912946506453  1.0000
  Ag  Ag2       1.0  0.0005000000254735222  0.0025000000411894343  0.9997637124302293  1.0000
  Ag  Ag3       1.0  0.002500000127367611  0.006500000088290018  6.218086729315464e-05  1.0000
  Ag  Ag4       1.0  0.004500000016982348  0.0005000000454350215  0.9996144783680646  1.0000
  Ag  Ag5       1.0  0.00850000064532923  0.00849999931455916  0.0002114149540766112  1.0000
  Ag  Ag6       1.0  0.0035000001783146556  0.003500000013792682  0.9998383294709812  1.0000
  Ag  Ag7       1.0  0.007500000169823481  0.001500000018038269  0.9996890954088165  1.0000
  Ag  Ag8       1.0  0.00950000027171757  0.005500000065138852  0.9999875635472049  1.0000
  Ag  Ag9       1.0  0.0015000000764205667  0.009500000162787355  0.9995398613325928  1.0000
  Ag  Ag10      1.0  0.005500000067929393  0.007500000167032941  0.0001367979027650548  1.0000
  Ag  Ag11      1.0  0.006500000118876437  0.009499999577785556  0.999912946506453  1.0000
  Ag  Ag12      1.0  0.0005000000254735222  0.007500000139237063  0.9997637124302293  1.0000
  Ag  Ag13      1.0  0.002500000127367611  0.00149999999024239  6.218086729315464e-05  1.0000
  Ag  Ag14      1.0  0.004500000016982348  0.00550000014348265  0.9996144783680646  1.0000
  Ag  Ag15      1.0  0.00850000064532923  0.003499999829309209  0.0002114149540766112  1.0000
