data_image0
_chemical_formula_structural       COCuAuCuAuCuAuCuAuCuAuCuAuCuAuCuAu
_chemical_formula_sum              "C1 O1 Cu8 Au8"
_cell_length_a       5.785843849182129
_cell_length_b       5.785843849182129
_cell_length_c       99.58938598632812
_cell_angle_alpha    90.0
_cell_angle_beta     90.0
_cell_angle_gamma    90.0

_space_group_name_H-M_alt    "P 1"
_space_group_IT_number       1

loop_
  _space_group_symop_operation_xyz
  'x, y, z'

loop_
  _atom_site_type_symbol
  _atom_site_label
  _atom_site_symmetry_multiplicity
  _atom_site_fract_x
  _atom_site_fract_y
  _atom_site_fract_z
  _atom_site_occupancy
  C   C1        1.0  0.004999998931187558  0.004999999896981934  0.00017391927416500556  1.0000
  O   O1        1.0  0.004999998931187558  0.004999999896981934  0.0002944136882554557  1.0000
  Cu  Cu1       1.0  0.0025000009142853424  0.002499999948490967  0.9994562746870925  1.0000
  Au  Au1       1.0  9.500000002670867e-10  4.9999996731794926e-11  0.9996419710235012  1.0000
  Cu  Cu2       1.0  0.002499993992758984  0.002500000592353884  0.9998267603271145  1.0000
  Au  Au2       1.0  0.009999998506238032  0.009999999793963868  0.0  1.0000
  Cu  Cu3       1.0  0.0025000009142853424  0.0074999998454729  0.9994562746870925  1.0000
  Au  Au3       1.0  9.500000002670867e-10  0.004999999896981934  0.9996419710235012  1.0000
  Cu  Cu4       1.0  0.002499993992758984  0.007500000489335817  0.9998267603271145  1.0000
  Au  Au4       1.0  0.009999998506238032  0.004999999896981934  0.0  1.0000
  Cu  Cu5       1.0  0.007500000489335817  0.002499999948490967  0.9994562746870925  1.0000
  Au  Au5       1.0  0.005000000862776309  4.9999996731794926e-11  0.9996419710235012  1.0000
  Cu  Cu6       1.0  0.007499994050706647  0.002500000592353884  0.9998267603271145  1.0000
  Au  Au6       1.0  0.004999998931187558  0.009999999793963868  0.0  1.0000
  Cu  Cu7       1.0  0.007500000489335817  0.0074999998454729  0.9994562746870925  1.0000
  Au  Au7       1.0  0.005000000862776309  0.004999999896981934  0.9996419710235012  1.0000
  Cu  Cu8       1.0  0.007499994050706647  0.007500000489335817  0.9998267603271145  1.0000
  Au  Au8       1.0  0.004999998931187558  0.004999999896981934  0.0  1.0000
