data_image0
_chemical_formula_structural       HV30Sn10
_chemical_formula_sum              "H1 V30 Sn10"
_cell_length_a       7.046857833862305
_cell_length_b       11.142061059505473
_cell_length_c       104.52241516113281
_cell_angle_alpha    75.03678269396438
_cell_angle_beta     90.0
_cell_angle_gamma    71.56505204835923

_space_group_name_H-M_alt    "P 1"
_space_group_IT_number       1

loop_
  _space_group_symop_operation_xyz
  'x, y, z'

loop_
  _atom_site_type_symbol
  _atom_site_label
  _atom_site_symmetry_multiplicity
  _atom_site_fract_x
  _atom_site_fract_y
  _atom_site_fract_z
  _atom_site_occupancy
  H   H1        1.0  0.0071078561061542304  0.0062198780491635386  0.9998288045040623  1.0000
  V   V1        1.0  0.007746027261204327  0.002534131974822563  0.9994372674924193  1.0000
  V   V2        1.0  0.005853771356504734  0.006494056848429536  0.9995974127423419  1.0000
  V   V3        1.0  0.00974602697961896  0.008534132030493535  0.9992721239032625  1.0000
  V   V4        1.0  0.003616110194823872  0.0005872191409772288  0.9997631285512384  1.0000
  V   V5        1.0  0.0017460269159873946  0.004534132115465017  0.9991069804957814  1.0000
  V   V6        1.0  0.0008724694879184525  0.0014686206316512746  0.9996134260509952  1.0000
  V   V7        1.0  0.008802800985918327  0.005628824112243741  0.9997366496579065  1.0000
  V   V8        1.0  0.002746026866758808  0.007534131960172308  0.9994372674015813  1.0000
  V   V9        1.0  0.006746027071333287  0.009534132100814762  0.9991069804049435  1.0000
  V   V10       1.0  0.004746026824273067  0.00353413204514379  0.9992721239941004  1.0000
  V   V11       1.0  0.006246027338850681  0.005534131819529855  0.9993546957028813  1.0000
  V   V12       1.0  0.004246027198208228  0.009534132100814762  0.9995198396705386  1.0000
  V   V13       1.0  0.008246027204800844  0.0015341320876295307  0.9991895522903599  1.0000
  V   V14       1.0  0.0021797374747640303  0.0034261402504823335  0.9996916925129187  1.0000
  V   V15       1.0  0.009753973791620235  0.00784872568678757  0.99980540931689  1.0000
  V   V16       1.0  0.004246026789112454  0.004534132115465017  0.9995198391911194  1.0000
  V   V17       1.0  0.002028905846485315  0.008622128057672407  0.9996805356191898  1.0000
  V   V18       1.0  0.006246026792408762  0.000534132108872401  0.9993546957861585  1.0000
  V   V19       1.0  0.0005103850028027318  0.0024574536362778018  0.9998244702907545  1.0000
  V   V20       1.0  0.008246027176815126  0.006534131889851082  0.9991895522045623  1.0000
  V   V21       1.0  0.0007460269970051719  0.004034132080304403  0.9993959815926099  1.0000
  V   V22       1.0  0.008746027589282324  0.008034131995332922  0.9995611255703479  1.0000
  V   V23       1.0  0.0027460269631035656  3.4132148107616535e-05  0.9992308381856013  1.0000
  V   V24       1.0  0.006622475328181731  0.0021920862331853744  0.9997305114184233  1.0000
  V   V25       1.0  0.0047460273847078445  0.0060341318546904684  0.9990656946060528  1.0000
  V   V26       1.0  0.009746027659603551  0.0060341318546904684  0.9994785533013908  1.0000
  V   V27       1.0  0.00782201197343433  0.009963153845591276  0.9996559799366931  1.0000
  V   V28       1.0  0.0017460269757623014  0.002034132122790144  0.9993134098888694  1.0000
  V   V29       1.0  0.005808222819138248  0.003658606842274084  0.9997907272347708  1.0000
  V   V30       1.0  0.003746027314386618  0.008034131995332922  0.999148266304753  1.0000
  Sn  Sn1       1.0  0.008279444828027649  0.004032420564205014  0.9995927554092479  1.0000
  Sn  Sn2       1.0  0.005971793963596332  0.007927155097121583  0.9997792257014132  1.0000
  Sn  Sn3       1.0  0.00024602695781710926  3.4132148107616535e-05  0.9994372678183989  1.0000
  Sn  Sn4       1.0  0.0042460268488873605  0.002034132122790144  0.9991069805412004  1.0000
  Sn  Sn5       1.0  0.002246026982937198  0.0060341318546904684  0.9992721242388504  1.0000
  Sn  Sn6       1.0  0.00824602661638035  0.004034132080304403  0.9991895525300694  1.0000
  Sn  Sn7       1.0  0.00624602665886609  0.008034131995332922  0.9993546959375504  1.0000
  Sn  Sn8       1.0  0.000307302315252444  0.009965867805423604  0.9998747944170673  1.0000
  Sn  Sn9       1.0  0.0042460268488873605  0.002034132122790144  0.9995198395216669  1.0000
  Sn  Sn10      1.0  0.002421360666474719  0.005982143958004914  0.9997009645245293  1.0000
