data_image0
_chemical_formula_structural       In6Ni4In6Ni4H
_chemical_formula_sum              "In12 Ni8 H1"
_cell_length_a       7.771286487579346
_cell_length_b       7.025673026671498
_cell_length_c       101.40727996826172
_cell_angle_alpha    108.62128397369699
_cell_angle_beta     90.0
_cell_angle_gamma    56.4225638997275

_space_group_name_H-M_alt    "P 1"
_space_group_IT_number       1

loop_
  _space_group_symop_operation_xyz
  'x, y, z'

loop_
  _atom_site_type_symbol
  _atom_site_label
  _atom_site_symmetry_multiplicity
  _atom_site_fract_x
  _atom_site_fract_y
  _atom_site_fract_z
  _atom_site_occupancy
  In  In1       1.0  0.00704271934736807  0.00366703063059698  0.9995572696858896  1.0000
  In  In2       1.0  0.00204271918438364  0.00366703063059698  0.9997784940179988  1.0000
  In  In3       1.0  0.008917023165245983  0.0065850901983977115  0.9996218243049477  1.0000
  In  In4       1.0  0.003917022762578566  0.0065850901983977115  0.9994005996789511  1.0000
  In  In5       1.0  0.00047987088921034834  0.00012606049675298095  0.99970015909276  1.0000
  In  In6       1.0  0.005479870812511793  0.00012606049675298095  0.9994789347606509  1.0000
  Ni  Ni1       1.0  0.00452012954173025  0.00871221024187262  0.9996688814060475  1.0000
  Ni  Ni2       1.0  0.009520129465031694  0.00871221024187262  0.9994476570739383  1.0000
  Ni  Ni3       1.0  0.0014396124913635113  0.0015399104148589606  0.999510212580979  1.0000
  Ni  Ni4       1.0  0.006439612654347941  0.0015399104148589606  0.9997314369130881  1.0000
  In  In7       1.0  0.006820341805741164  0.0038070853625284595  2.990988954321214e-05  1.0000
  In  In8       1.0  0.002817064105059101  0.003471584695591846  0.00024157262551251633  1.0000
  In  In9       1.0  0.009039908575954228  0.006307073386797041  9.250003613208909e-05  1.0000
  In  In10      1.0  0.003917022762578566  0.0065850901983977115  0.9998430486370569  1.0000
  In  In11      1.0  0.0007455541527455776  0.009873938875778641  0.00015199127690782488  1.0000
  In  In12      1.0  0.005479870812511793  0.00012606049675298095  0.9999213837187565  1.0000
  Ni  Ni5       1.0  0.0046440610190058365  0.008612975665578353  9.644323098202161e-05  1.0000
  Ni  Ni6       1.0  0.009520129465031694  0.00871221024187262  0.9998901057381566  1.0000
  Ni  Ni7       1.0  0.0014594233230883786  0.0014707722710678942  0.9999532697711271  1.0000
  Ni  Ni8       1.0  0.006946722863129962  0.0008478948764397778  0.0001439076979544254  1.0000
  H   H1        1.0  0.006387947660620902  0.008348702693959112  0.00018469373551665273  1.0000
