data_image0
_chemical_formula_structural       COPd4Zn12
_chemical_formula_sum              "C1 O1 Pd4 Zn12"
_cell_length_a       4.953086706288991
_cell_length_b       5.371696472167969
_cell_length_c       106.13654327392578
_cell_angle_alpha    90.0
_cell_angle_beta     92.3197855637445
_cell_angle_gamma    90.0

_space_group_name_H-M_alt    "P 1"
_space_group_IT_number       1

loop_
  _space_group_symop_operation_xyz
  'x, y, z'

loop_
  _atom_site_type_symbol
  _atom_site_label
  _atom_site_symmetry_multiplicity
  _atom_site_fract_x
  _atom_site_fract_y
  _atom_site_fract_z
  _atom_site_occupancy
  C   C1        1.0  0.004820434840743152  0.0012253574003569733  0.00015564369146553076  1.0000
  O   O1        1.0  0.004820434840743152  0.0012253574003569733  0.00026870582773394524  1.0000
  Pd  Pd1       1.0  0.0027473842375002927  0.005000004188761133  0.9993542243921636  1.0000
  Pd  Pd2       1.0  0.005872384275136882  4.199999877327358e-09  0.9995670195686894  1.0000
  Pd  Pd3       1.0  0.0021416255973197643  0.009999977169864817  0.9999777823325527  1.0000
  Pd  Pd4       1.0  0.009127615754972389  0.005000004535512883  0.999778012645324  1.0000
  Zn  Zn1       1.0  0.0008723842337366338  0.002500004174891063  0.999567019611432  1.0000
  Zn  Zn2       1.0  0.004077266143579504  0.007463811988782509  0.9997795877333908  1.0000
  Zn  Zn3       1.0  0.007747384184809069  0.007500003855879454  0.9993542243492433  1.0000
  Zn  Zn4       1.0  0.0072159246875115315  0.0024507376863294105  6.856596152675723e-06  1.0000
  Zn  Zn5       1.0  0.0008723842337366338  0.007500003855879454  0.999567019611432  1.0000
  Zn  Zn6       1.0  0.004077247325285053  0.002536227769773083  0.9997795910673517  1.0000
  Zn  Zn7       1.0  0.007747384184809069  0.002500004174891063  0.9993542243492433  1.0000
  Zn  Zn8       1.0  0.007215859952578621  0.007549235669266162  6.873321409479174e-06  1.0000
  Zn  Zn9       1.0  0.005872384275136882  0.005000004188761133  0.9995670195686894  1.0000
  Zn  Zn10      1.0  0.008940696647118282  0.009999995894459286  0.9997784637559524  1.0000
  Zn  Zn11      1.0  0.0027473842375002927  4.199999877327358e-09  0.9993542243921636  1.0000
  Zn  Zn12      1.0  0.002300091067598156  0.005000008696533876  4.344727783081245e-06  1.0000
