data_image0
_chemical_formula_structural       COPt8V4
_chemical_formula_sum              "C1 O1 Pt8 V4"
_cell_length_a       4.7204006576308455
_cell_length_b       4.841607955805792
_cell_length_c       101.70953369140625
_cell_angle_alpha    85.59522796622619
_cell_angle_beta     89.3746205850424
_cell_angle_gamma    80.99404048056334

_space_group_name_H-M_alt    "P 1"
_space_group_IT_number       1

loop_
  _space_group_symop_operation_xyz
  'x, y, z'

loop_
  _atom_site_type_symbol
  _atom_site_label
  _atom_site_symmetry_multiplicity
  _atom_site_fract_x
  _atom_site_fract_y
  _atom_site_fract_z
  _atom_site_occupancy
  C   C1        1.0  0.0010270373210420573  0.004802561072137044  9.151006416377049e-06  1.0000
  O   O1        1.0  0.0010270373210420573  0.004802561072137044  0.00012713428569385336  1.0000
  Pt  Pt1       1.0  0.008723263375871083  0.0038171456830490757  0.9998114022612618  1.0000
  Pt  Pt2       1.0  0.0025466683129822  0.0011651888654778634  0.9999944500852997  1.0000
  Pt  Pt3       1.0  0.008049242028517482  0.00860358388701744  0.9999312422351013  1.0000
  Pt  Pt4       1.0  0.004195351944371465  0.001164688053377838  0.9997395354885446  1.0000
  Pt  Pt5       1.0  0.0012261802838264549  0.008835312223982997  0.9994232336148888  1.0000
  Pt  Pt6       1.0  0.004976180425078572  0.006335312130227222  0.9996180869965271  1.0000
  Pt  Pt7       1.0  0.0004246065235754123  0.0036447553763061806  0.9995481852558994  1.0000
  Pt  Pt8       1.0  0.00667460698214299  0.0061447554700619555  0.9993533319168105  1.0000
  V   V1        1.0  0.009575393254183426  0.008740033698575832  0.9996805631829264  1.0000
  V   V2        1.0  0.0033224537229809797  0.006340387833515544  0.9998653028358195  1.0000
  V   V3        1.0  0.002075393561110807  0.0037400339017133457  0.9992908560237251  1.0000
  V   V4        1.0  0.005825393520652029  0.001240033710295304  0.9994857094058125  1.0000
