data_image0
_chemical_formula_structural       COPt5Se10
_chemical_formula_sum              "C1 O1 Pt5 Se10"
_cell_length_a       7.223001507141884
_cell_length_b       6.55187291527636
_cell_length_c       105.95325469970703
_cell_angle_alpha    111.37473441327015
_cell_angle_beta     104.6312136219017
_cell_angle_gamma    90.00000041559655

_space_group_name_H-M_alt    "P 1"
_space_group_IT_number       1

loop_
  _space_group_symop_operation_xyz
  'x, y, z'

loop_
  _atom_site_type_symbol
  _atom_site_label
  _atom_site_symmetry_multiplicity
  _atom_site_fract_x
  _atom_site_fract_y
  _atom_site_fract_z
  _atom_site_occupancy
  C   C1        1.0  0.008647190289838503  0.0010749728729212947  0.00017313114421564654  1.0000
  O   O1        1.0  0.008647190289838503  0.0010749728729212947  0.0002863883041590633  1.0000
  Pt  Pt1       1.0  0.0010441852485430366  0.008943973737949371  0.99939913603645  1.0000
  Pt  Pt2       1.0  0.005044185271048476  0.0009439741368510775  0.999738467379552  1.0000
  Pt  Pt3       1.0  0.003044185326776229  0.004943974059723748  0.9995688015712723  1.0000
  Pt  Pt4       1.0  0.008857138706343822  0.0028747055856382757  6.888337158563144e-05  1.0000
  Pt  Pt5       1.0  0.007079008631045853  0.0069522207626066986  0.9999114956019807  1.0000
  Se  Se1       1.0  0.008325682948761537  0.003183475099001778  0.9998356573568756  1.0000
  Se  Se2       1.0  0.001201805304642537  0.006237177797201439  0.00020579591628408183  1.0000
  Se  Se3       1.0  0.0002373122002307695  0.009385272027335603  3.959582233295505e-06  1.0000
  Se  Se4       1.0  0.006325682468645509  0.007183474730190915  0.9996659918140729  1.0000
  Se  Se5       1.0  0.004325682792295153  0.0011834750690878496  0.9994963261885498  1.0000
  Se  Se6       1.0  0.009762687906268183  0.002704473234528234  0.9994716113989441  1.0000
  Se  Se7       1.0  0.0037626878055295513  0.004704473127486976  0.9998109424809963  1.0000
  Se  Se8       1.0  0.0017626878612573046  0.008704473126682386  0.9996412769557148  1.0000
  Se  Se9       1.0  0.007888106485997177  0.006787493162316597  0.00015823612346525136  1.0000
  Se  Se10      1.0  0.00570547704877341  0.0006147275695038479  0.999977530996122  1.0000
