data_image0
_chemical_formula_structural       HV18Co6
_chemical_formula_sum              "H1 V18 Co6"
_cell_length_a       6.584106922149658
_cell_length_b       6.584107008775139
_cell_length_c       102.25540161132812
_cell_angle_alpha    90.0
_cell_angle_beta     90.0
_cell_angle_gamma    60.00000043522195

_space_group_name_H-M_alt    "P 1"
_space_group_IT_number       1

loop_
  _space_group_symop_operation_xyz
  'x, y, z'

loop_
  _atom_site_type_symbol
  _atom_site_label
  _atom_site_symmetry_multiplicity
  _atom_site_fract_x
  _atom_site_fract_y
  _atom_site_fract_z
  _atom_site_occupancy
  H   H1        1.0  0.006666647424169933  0.007083426829213222  5.330035022480344e-05  1.0000
  V   V1        1.0  0.00666673822583961  0.004583333128623263  0.9997448379799923  1.0000
  V   V2        1.0  7.177293746527221e-08  0.007916666283379727  0.99948197206586  1.0000
  V   V3        1.0  0.0036956975902272303  0.0008897148518437788  0.9999999912565042  1.0000
  V   V4        1.0  0.00018440043317970886  0.0028351977690567686  0.9998759432016919  1.0000
  V   V5        1.0  0.003333405059172385  0.006249999869333998  0.999613405168651  1.0000
  V   V6        1.0  0.006666738476885761  0.009583333350755466  0.9993505386716192  1.0000
  V   V7        1.0  0.004166738114773509  0.009583333350755466  0.9997448379799923  1.0000
  V   V8        1.0  0.0075000714328624755  0.002916666714577534  0.99948197206586  1.0000
  V   V9        1.0  0.0004732023333426023  0.0062482130117581  0.0  1.0000
  V   V10       1.0  0.002418861871238511  0.00781377791349852  0.9998759332923967  1.0000
  V   V11       1.0  0.005833405047739109  0.0012499998922005484  0.999613405168651  1.0000
  V   V12       1.0  0.009166738587951863  0.004583333128623263  0.9993505386716192  1.0000
  V   V13       1.0  0.009166737500207897  0.007083333403021867  0.9997448379799923  1.0000
  V   V14       1.0  0.0025000714113989236  0.000416666644344558  0.99948197206586  1.0000
  V   V15       1.0  0.005831541998726896  0.004111883660490339  0.9999999930052034  1.0000
  V   V16       1.0  0.0073968897039917375  0.0006010371488460958  0.9998759496135888  1.0000
  V   V17       1.0  0.000833404772771003  0.003749999921600399  0.999613405168651  1.0000
  V   V18       1.0  0.004166737907584182  0.007083333403021867  0.9993505386716192  1.0000
  Co  Co1       1.0  0.006666647424169933  0.007083426829213222  0.9999328132297904  1.0000
  Co  Co2       1.0  7.150899949162571e-08  0.000416666644344558  0.9996791218657716  1.0000
  Co  Co3       1.0  0.003333404851983058  0.003749999921600399  0.9994162553687396  1.0000
  Co  Co4       1.0  0.006666738269696435  0.007083333403021867  0.9995476884715306  1.0000
  Co  Co5       1.0  0.009999928086919657  0.000416684447587316  4.2336006526984624e-05  1.0000
  Co  Co6       1.0  0.0033335329925870717  0.0037499473285346366  0.9998124281168067  1.0000
