data_image0
_chemical_formula_structural       COCa6Sn3
_chemical_formula_sum              "C1 O1 Ca6 Sn3"
_cell_length_a       5.42704439163208
_cell_length_b       5.4270444035946
_cell_length_c       109.8804702758789
_cell_angle_alpha    90.0
_cell_angle_beta     90.0
_cell_angle_gamma    119.99999992708425

_space_group_name_H-M_alt    "P 1"
_space_group_IT_number       1

loop_
  _space_group_symop_operation_xyz
  'x, y, z'

loop_
  _atom_site_type_symbol
  _atom_site_label
  _atom_site_symmetry_multiplicity
  _atom_site_fract_x
  _atom_site_fract_y
  _atom_site_fract_z
  _atom_site_occupancy
  C   C1        1.0  0.0016666808861551692  0.006666676146425612  7.191420415264195e-05  1.0000
  O   O1        1.0  0.0016666808861551692  0.006666676146425612  0.00018112346294013858  1.0000
  Ca  Ca1       1.0  0.001666666627883713  0.0016666638845634978  0.9996050156831365  1.0000
  Ca  Ca2       1.0  0.008333333433752062  0.004999997400199888  0.9992017443598928  1.0000
  Ca  Ca3       1.0  0.005000022355348645  0.008333335869723686  0.0  1.0000
  Ca  Ca4       1.0  0.004999999846286858  0.008333330321369788  0.9994033800215147  1.0000
  Ca  Ca5       1.0  0.001666666627883713  0.0016666638845634978  0.999000108969496  1.0000
  Ca  Ca6       1.0  0.008333333412922375  0.005000012460017611  0.9998071715541659  1.0000
  Sn  Sn1       1.0  0.004999999846286858  0.008333330321369788  0.9991009268003068  1.0000
  Sn  Sn2       1.0  0.0016666809220695763  0.0016666761702042716  0.9999142837018278  1.0000
  Sn  Sn3       1.0  0.008333333433752062  0.004999997400199888  0.9995041981235505  1.0000
