data_image0
_chemical_formula_structural       Ag12Sn4CO
_chemical_formula_sum              "Ag12 Sn4 C1 O1"
_cell_length_a       4.954258918762207
_cell_length_b       8.13156273086966
_cell_length_c       37.47374725341797
_cell_angle_alpha    98.95765042532388
_cell_angle_beta     90.0
_cell_angle_gamma    90.0

_space_group_name_H-M_alt    "P 1"
_space_group_IT_number       1

loop_
  _space_group_symop_operation_xyz
  'x, y, z'

loop_
  _atom_site_type_symbol
  _atom_site_label
  _atom_site_symmetry_multiplicity
  _atom_site_fract_x
  _atom_site_fract_y
  _atom_site_fract_z
  _atom_site_occupancy
  Ag  Ag1       1.0  0.0049999998044963955  0.008369631269865525  0.9984125152987553  1.0000
  Ag  Ag2       1.0  0.005000000556433337  0.0034837542032899937  0.9995492752782565  1.0000
  Ag  Ag3       1.0  1.499999980698652e-10  0.004125415149463305  0.9985765158587274  1.0000
  Ag  Ag4       1.0  0.009999997353181966  0.009059770132188885  0.9996924835876568  1.0000
  Ag  Ag5       1.0  1.499999980698652e-10  0.007921802681284059  0.9988588986130309  1.0000
  Ag  Ag6       1.0  0.009999999608992791  0.0026689104038506543  0.9999462946335033  1.0000
  Ag  Ag7       1.0  0.0049999998044963955  0.004573243274261096  0.998130132528782  1.0000
  Ag  Ag8       1.0  0.0049999998044963955  0.009573243589633995  0.9992151007281506  1.0000
  Ag  Ag9       1.0  1.499999980698652e-10  0.005426756428917353  0.9994003075012289  1.0000
  Ag  Ag10      1.0  1.499999980698652e-10  0.0004267566063146084  0.9983153397161523  1.0000
  Ag  Ag11      1.0  0.0049999998044963955  0.0020682899069304154  0.9986736915558435  1.0000
  Ag  Ag12      1.0  0.004999996796748629  0.007167442765977934  0.9997786770003704  1.0000
  Sn  Sn1       1.0  0.009999995849308083  0.006221325461239914  0.00014886500622352702  1.0000
  Sn  Sn2       1.0  1.499999980698652e-10  0.0016506233736776155  0.9991244695397116  1.0000
  Sn  Sn3       1.0  0.0049999998044963955  0.005844422846224234  0.9989495295134435  1.0000
  Sn  Sn4       1.0  0.004999999052559454  0.0008014420744876058  2.707820485638289e-05  1.0000
  C   C1        1.0  0.009999999608992791  0.0026689104038506543  0.00048000148946363767  1.0000
  O   O1        1.0  0.009999999608992791  0.0026689104038506543  0.0008002259211539954  1.0000
