data_image0
_chemical_formula_structural       COV30Rh10
_chemical_formula_sum              "C1 O1 V30 Rh10"
_cell_length_a       6.762400150299072
_cell_length_b       10.692293613628882
_cell_length_c       103.12886047363281
_cell_angle_alpha    75.03678238413437
_cell_angle_beta     90.0
_cell_angle_gamma    71.56505144755155

_space_group_name_H-M_alt    "P 1"
_space_group_IT_number       1

loop_
  _space_group_symop_operation_xyz
  'x, y, z'

loop_
  _atom_site_type_symbol
  _atom_site_label
  _atom_site_symmetry_multiplicity
  _atom_site_fract_x
  _atom_site_fract_y
  _atom_site_fract_z
  _atom_site_occupancy
  C   C1        1.0  0.0002482122211396934  0.0011215788232307772  0.9999725521238574  1.0000
  O   O1        1.0  0.0002482122211396934  0.0011215788232307772  8.891164013231745e-05  1.0000
  V   V1        1.0  0.0075709100874340836  0.002749999970993625  0.999410778408656  1.0000
  V   V2        1.0  0.005629351360830332  0.006724086913505749  0.9995724214327818  1.0000
  V   V3        1.0  0.009570910267937745  0.008749999786268814  0.9992501596482938  1.0000
  V   V4        1.0  0.0036194649582428034  0.0007294748893000697  0.9997247085420863  1.0000
  V   V5        1.0  0.0015709096910283965  0.004750000036639631  0.9990895411883841  1.0000
  V   V6        1.0  0.0006484713315610596  0.0017455494633075582  0.99956981044438  1.0000
  V   V7        1.0  0.008686734132414912  0.0056439246141040695  0.9997238288568225  1.0000
  V   V8        1.0  0.0025709098181823844  0.007750000421355766  0.9994107786740221  1.0000
  V   V9        1.0  0.006570910159747761  0.009749999914507526  0.9990895411800943  1.0000
  V   V10       1.0  0.004570910074659807  0.0037499999084009204  0.999250159945565  1.0000
  V   V11       1.0  0.006070909990491724  0.0057500001648783435  0.9993304690208121  1.0000
  V   V12       1.0  0.0040709101156771324  0.009749999914507526  0.9994910877697032  1.0000
  V   V13       1.0  0.00807091005613773  0.001750000033586329  0.9991698505711195  1.0000
  V   V14       1.0  0.0019961939187351776  0.003686707616055545  0.9996547492440238  1.0000
  V   V15       1.0  0.009929090795289598  0.007909330913668331  0.99978826883904  1.0000
  V   V16       1.0  0.004070910010540452  0.004750000036639631  0.9994910880669744  1.0000
  V   V17       1.0  0.001970215994779843  0.008748399855678933  0.9996505047138108  1.0000
  V   V18       1.0  0.0060709100284786046  0.0007500000007633256  0.9993304693257461  1.0000
  V   V19       1.0  0.009856331448650182  0.0028468780200216533  0.9998007957100051  1.0000
  V   V20       1.0  0.008070909970442996  0.006750000293117055  0.9991698505526126  1.0000
  V   V21       1.0  0.0005709097010527601  0.004249999972520276  0.9993706237172884  1.0000
  V   V22       1.0  0.008552056118257125  0.008280820904111738  0.9995281153636555  1.0000
  V   V23       1.0  0.0025709096832100225  0.00025000000820575086  0.9992100052631258  1.0000
  V   V24       1.0  0.0065179631767421165  0.0023357688958642064  0.999685592870044  1.0000
  V   V25       1.0  0.0045709099363967325  0.006250000228997699  0.9990493864919079  1.0000
  V   V26       1.0  0.009570909473655135  0.006250000228997699  0.9994509333704982  1.0000
  V   V27       1.0  0.0075242409266134125  0.00029738139730567045  0.9996088018550654  1.0000
  V   V28       1.0  0.0015709096384600555  0.002250000097705685  0.9992903146318242  1.0000
  V   V29       1.0  0.005540345227947035  0.004471962098816794  0.9997498275761273  1.0000
  V   V30       1.0  0.0035709099989894365  0.00825000010381229  0.9991296958663535  1.0000
  Rh  Rh1       1.0  0.00807870181569254  0.0042380909471872435  0.9995636723059876  1.0000
  Rh  Rh2       1.0  0.006190230282452188  0.00821005756183866  0.9997264754218357  1.0000
  Rh  Rh3       1.0  7.090970799975117e-05  0.00025000000820575086  0.9994107788469115  1.0000
  Rh  Rh4       1.0  0.004070909957972111  0.002250000097705685  0.9990895410480383  1.0000
  Rh  Rh5       1.0  0.0020709098923261046  0.006250000228997699  0.9992501600756938  1.0000
  Rh  Rh6       1.0  0.008070909557823218  0.004249999972520276  0.9991698504224839  1.0000
  Rh  Rh7       1.0  0.00607090949217721  0.00825000010381229  0.999330469161158  1.0000
  Rh  Rh8       1.0  0.000157131016615505  0.00036220489707732006  0.9997952304237521  1.0000
  Rh  Rh9       1.0  0.004070909957972111  0.002250000097705685  0.9994910879266287  1.0000
  Rh  Rh10      1.0  0.0020261881069824953  0.006234172289710253  0.9996597826034286  1.0000
