data_image0
_chemical_formula_structural       COAl3Pt2Al3Pt2Al3Pt2Al3Pt2Al3Pt2Al3Pt2Al3Pt2Al3Pt2
_chemical_formula_sum              "C1 O1 Al24 Pt16"
_cell_length_a       8.519735336303711
_cell_length_b       8.51973501668246
_cell_length_c       101.57817840576172
_cell_angle_alpha    90.0
_cell_angle_beta     90.0
_cell_angle_gamma    120.00000124099938

_space_group_name_H-M_alt    "P 1"
_space_group_IT_number       1

loop_
  _space_group_symop_operation_xyz
  'x, y, z'

loop_
  _atom_site_type_symbol
  _atom_site_label
  _atom_site_symmetry_multiplicity
  _atom_site_fract_x
  _atom_site_fract_y
  _atom_site_fract_z
  _atom_site_occupancy
  C   C1        1.0  0.0016666678591444133  0.00166666547342506  0.000148103592406671  1.0000
  O   O1        1.0  0.0016666678591444133  0.00166666547342506  0.0002662394411394575  1.0000
  Al  Al1       1.0  0.0008333333344446351  2.499999996166272e-10  0.9994203303271431  1.0000
  Al  Al2       1.0  0.0024999999997707685  0.0033333334713387093  0.9992373382043449  1.0000
  Al  Al3       1.0  0.004166666550464762  0.0016666669881182136  0.999085196644636  1.0000
  Pt  Pt1       1.0  0.0024999999997707685  0.0033333334713387093  0.999506807315183  1.0000
  Pt  Pt2       1.0  0.004166666550464762  0.0016666669881182136  0.999333853339103  1.0000
  Al  Al4       1.0  0.0008333341428740148  0.010000000161567268  0.9999551795311421  1.0000
  Al  Al5       1.0  0.0024999975583408353  0.0033333370056227345  0.9997542129820705  1.0000
  Al  Al6       1.0  0.004166666550464762  0.0016666669881182136  0.999603322743334  1.0000
  Pt  Pt3       1.0  0.002500002088500836  0.003333331199298979  0.0  1.0000
  Pt  Pt4       1.0  0.004166665520441407  0.0016666671143426431  0.9998498790376035  1.0000
  Al  Al7       1.0  0.0008333332935618754  0.005000000080783634  0.9994203303271431  1.0000
  Al  Al8       1.0  0.0025000002647692166  0.008333333804571203  0.9992373382043449  1.0000
  Al  Al9       1.0  0.004166666626126566  0.006666666942677419  0.999085196644636  1.0000
  Pt  Pt5       1.0  0.0025000002647692166  0.008333333804571203  0.999506807315183  1.0000
  Pt  Pt6       1.0  0.004166666626126566  0.006666666942677419  0.999333853339103  1.0000
  Al  Al10      1.0  0.0008333335876808017  0.004999999575885917  0.9999551795311421  1.0000
  Al  Al11      1.0  0.0024999975162336464  0.008333336833957511  0.9997542129820705  1.0000
  Al  Al12      1.0  0.004166666626126566  0.006666666942677419  0.999603322743334  1.0000
  Pt  Pt7       1.0  0.0025000022819316324  0.008333331280082613  0.0  1.0000
  Pt  Pt8       1.0  0.004166665894753412  0.006666667447575137  0.9998498790376035  1.0000
  Al  Al13      1.0  0.005833333137680232  2.499999996166272e-10  0.9994203303271431  1.0000
  Al  Al14      1.0  0.007499999748349587  0.0033333334713387093  0.9992373382043449  1.0000
  Al  Al15      1.0  0.009166666244386801  0.0016666669881182136  0.999085196644636  1.0000
  Pt  Pt9       1.0  0.007499999748349587  0.0033333334713387093  0.999506807315183  1.0000
  Pt  Pt10      1.0  0.009166666244386801  0.0016666669881182136  0.999333853339103  1.0000
  Al  Al16      1.0  0.005833333836796055  0.010000000161567268  0.9999551795311421  1.0000
  Al  Al17      1.0  0.007499997580203547  0.0033333370056227345  0.9997542129820705  1.0000
  Al  Al18      1.0  0.009166666244386801  0.0016666669881182136  0.999603322743334  1.0000
  Pt  Pt11      1.0  0.007500002110363546  0.003333331199298979  0.0  1.0000
  Pt  Pt12      1.0  0.009166665432990561  0.0016666671143426431  0.9998498790376035  1.0000
  Al  Al19      1.0  0.005833333096797472  0.005000000080783634  0.9994203303271431  1.0000
  Al  Al20      1.0  0.007499999958691257  0.008333333804571203  0.9992373382043449  1.0000
  Al  Al21      1.0  0.009166666484018942  0.006666666942677419  0.999085196644636  1.0000
  Pt  Pt13      1.0  0.007499999958691257  0.008333333804571203  0.999506807315183  1.0000
  Pt  Pt14      1.0  0.009166666484018942  0.006666666942677419  0.999333853339103  1.0000
  Al  Al22      1.0  0.005833333500229956  0.004999999575885917  0.9999551795311421  1.0000
  Al  Al23      1.0  0.007499997319469242  0.008333336833957511  0.9997542129820705  1.0000
  Al  Al24      1.0  0.009166666484018942  0.006666666942677419  0.999603322743334  1.0000
  Pt  Pt15      1.0  0.007500001975853672  0.008333331280082613  0.0  1.0000
  Pt  Pt16      1.0  0.009166665861959345  0.006666667447575137  0.9998498790376035  1.0000
