data_image0
_chemical_formula_structural       COAl4Ni12Al4Ni12Al4Ni12Al4Ni12
_chemical_formula_sum              "C1 O1 Al16 Ni48"
_cell_length_a       8.092113494873047
_cell_length_b       8.092113494873047
_cell_length_c       104.3319320678711
_cell_angle_alpha    90.0
_cell_angle_beta     90.0
_cell_angle_gamma    90.0

_space_group_name_H-M_alt    "P 1"
_space_group_IT_number       1

loop_
  _space_group_symop_operation_xyz
  'x, y, z'

loop_
  _atom_site_type_symbol
  _atom_site_label
  _atom_site_symmetry_multiplicity
  _atom_site_fract_x
  _atom_site_fract_y
  _atom_site_fract_z
  _atom_site_occupancy
  C   C1        1.0  0.0012500000138108182  0.0012500001289009707  0.0001659661255817644  1.0000
  O   O1        1.0  0.0012500000138108182  0.0012500001289009707  0.0002809838778734471  1.0000
  Al  Al1       1.0  0.0025000000276216364  0.0025000002578019413  0.9995957985268001  1.0000
  Al  Al2       1.0  0.010000000110486545  5.0000000932741624e-11  0.9998698748381627  1.0000
  Al  Al3       1.0  0.0025000000276216364  0.0025000002578019413  0.9990473576841344  1.0000
  Al  Al4       1.0  0.0  5.0000000932741624e-11  0.9993215779626428  1.0000
  Ni  Ni1       1.0  0.002499999797441332  0.010000000110486545  0.9997315829685861  1.0000
  Ni  Ni2       1.0  0.0  5.0000000932741624e-11  0.9995957985268001  1.0000
  Ni  Ni3       1.0  0.010000000110486545  0.0025000002578019413  0.9997315698287276  1.0000
  Ni  Ni4       1.0  0.010000000110486545  0.0025000002578019413  0.0  1.0000
  Ni  Ni5       1.0  0.002500000487982246  0.0025000000276216364  0.9998724868135235  1.0000
  Ni  Ni6       1.0  0.0025000002578019413  5.0000000932741624e-11  0.9999999057357973  1.0000
  Ni  Ni7       1.0  0.0025000000276216364  5.0000000932741624e-11  0.9991844678233887  1.0000
  Ni  Ni8       1.0  0.0  5.0000000932741624e-11  0.9990473576841344  1.0000
  Ni  Ni9       1.0  0.0  0.0025000002578019413  0.9991844678233887  1.0000
  Ni  Ni10      1.0  0.0  0.0025000002578019413  0.999458688101897  1.0000
  Ni  Ni11      1.0  0.0025000000276216364  0.0025000002578019413  0.9993215779626428  1.0000
  Ni  Ni12      1.0  0.0025000000276216364  5.0000000932741624e-11  0.999458688101897  1.0000
  Al  Al5       1.0  0.0025000000276216364  0.0075000003130452145  0.9995957985268001  1.0000
  Al  Al6       1.0  0.010000000110486545  0.005000000055243273  0.9998698748381627  1.0000
  Al  Al7       1.0  0.0025000000276216364  0.0075000003130452145  0.9990473576841344  1.0000
  Al  Al8       1.0  0.0  0.005000000055243273  0.9993215779626428  1.0000
  Ni  Ni13      1.0  0.002499999797441332  0.005000000055243273  0.9997315829685861  1.0000
  Ni  Ni14      1.0  0.0  0.005000000055243273  0.9995957985268001  1.0000
  Ni  Ni15      1.0  0.010000000110486545  0.0075000003130452145  0.9997315698287276  1.0000
  Ni  Ni16      1.0  0.010000000110486545  0.0075000003130452145  0.0  1.0000
  Ni  Ni17      1.0  0.002500000487982246  0.0075000003130452145  0.9998724868135235  1.0000
  Ni  Ni18      1.0  0.0025000002578019413  0.005000000055243273  0.9999999057357973  1.0000
  Ni  Ni19      1.0  0.0025000000276216364  0.005000000055243273  0.9991844678233887  1.0000
  Ni  Ni20      1.0  0.0  0.005000000055243273  0.9990473576841344  1.0000
  Ni  Ni21      1.0  0.0  0.0075000003130452145  0.9991844678233887  1.0000
  Ni  Ni22      1.0  0.0  0.0075000003130452145  0.999458688101897  1.0000
  Ni  Ni23      1.0  0.0025000000276216364  0.0075000003130452145  0.9993215779626428  1.0000
  Ni  Ni24      1.0  0.0025000000276216364  0.005000000055243273  0.999458688101897  1.0000
  Al  Al9       1.0  0.0075000003130452145  0.0025000002578019413  0.9995957985268001  1.0000
  Al  Al10      1.0  0.004999999594882664  5.0000000932741624e-11  0.9998698748381627  1.0000
  Al  Al11      1.0  0.0075000003130452145  0.0025000002578019413  0.9990473576841344  1.0000
  Al  Al12      1.0  0.005000000055243273  5.0000000932741624e-11  0.9993215779626428  1.0000
  Ni  Ni25      1.0  0.0075000003130452145  0.010000000110486545  0.9997315829685861  1.0000
  Ni  Ni26      1.0  0.005000000055243273  5.0000000932741624e-11  0.9995957985268001  1.0000
  Ni  Ni27      1.0  0.005000000055243273  0.0025000002578019413  0.9997315698287276  1.0000
  Ni  Ni28      1.0  0.005000000055243273  0.0025000002578019413  0.0  1.0000
  Ni  Ni29      1.0  0.0075000007734058235  0.0025000000276216364  0.9998724868135235  1.0000
  Ni  Ni30      1.0  0.0075000003130452145  5.0000000932741624e-11  0.9999999057357973  1.0000
  Ni  Ni31      1.0  0.0075000003130452145  5.0000000932741624e-11  0.9991844678233887  1.0000
  Ni  Ni32      1.0  0.005000000055243273  5.0000000932741624e-11  0.9990473576841344  1.0000
  Ni  Ni33      1.0  0.005000000055243273  0.0025000002578019413  0.9991844678233887  1.0000
  Ni  Ni34      1.0  0.005000000055243273  0.0025000002578019413  0.999458688101897  1.0000
  Ni  Ni35      1.0  0.0075000003130452145  0.0025000002578019413  0.9993215779626428  1.0000
  Ni  Ni36      1.0  0.0075000003130452145  5.0000000932741624e-11  0.999458688101897  1.0000
  Al  Al13      1.0  0.0075000003130452145  0.0075000003130452145  0.9995957985268001  1.0000
  Al  Al14      1.0  0.004999999594882664  0.005000000055243273  0.9998698748381627  1.0000
  Al  Al15      1.0  0.0075000003130452145  0.0075000003130452145  0.9990473576841344  1.0000
  Al  Al16      1.0  0.005000000055243273  0.005000000055243273  0.9993215779626428  1.0000
  Ni  Ni37      1.0  0.0075000003130452145  0.005000000055243273  0.9997315829685861  1.0000
  Ni  Ni38      1.0  0.005000000055243273  0.005000000055243273  0.9995957985268001  1.0000
  Ni  Ni39      1.0  0.005000000055243273  0.0075000003130452145  0.9997315698287276  1.0000
  Ni  Ni40      1.0  0.005000000055243273  0.0075000003130452145  0.0  1.0000
  Ni  Ni41      1.0  0.0075000007734058235  0.0075000003130452145  0.9998724868135235  1.0000
  Ni  Ni42      1.0  0.0075000003130452145  0.005000000055243273  0.9999999057357973  1.0000
  Ni  Ni43      1.0  0.0075000003130452145  0.005000000055243273  0.9991844678233887  1.0000
  Ni  Ni44      1.0  0.005000000055243273  0.005000000055243273  0.9990473576841344  1.0000
  Ni  Ni45      1.0  0.005000000055243273  0.0075000003130452145  0.9991844678233887  1.0000
  Ni  Ni46      1.0  0.005000000055243273  0.0075000003130452145  0.999458688101897  1.0000
  Ni  Ni47      1.0  0.0075000003130452145  0.0075000003130452145  0.9993215779626428  1.0000
  Ni  Ni48      1.0  0.0075000003130452145  0.005000000055243273  0.999458688101897  1.0000
