data_image0
_chemical_formula_structural       COGa6Pt10
_chemical_formula_sum              "C1 O1 Ga6 Pt10"
_cell_length_a       5.572155201430832
_cell_length_b       5.572155475616455
_cell_length_c       98.0726547241211
_cell_angle_alpha    90.0
_cell_angle_beta     90.0
_cell_angle_gamma    94.39116523271123

_space_group_name_H-M_alt    "P 1"
_space_group_IT_number       1

loop_
  _space_group_symop_operation_xyz
  'x, y, z'

loop_
  _atom_site_type_symbol
  _atom_site_label
  _atom_site_symmetry_multiplicity
  _atom_site_fract_x
  _atom_site_fract_y
  _atom_site_fract_z
  _atom_site_occupancy
  C   C1        1.0  0.002470755290007496  0.003956499093912401  0.0001766090025196469  1.0000
  O   O1        1.0  0.002470755290007496  0.003956499093912401  0.0002989669089901739  1.0000
  Ga  Ga1       1.0  0.002470755290007496  0.008956499107283494  0.9995910807833536  1.0000
  Ga  Ga2       1.0  0.005325264262205062  0.006101989918508559  0.9993866211750303  1.0000
  Ga  Ga3       1.0  0.009616246907870107  0.0018110081473557132  0.9993866211750303  1.0000
  Ga  Ga4       1.0  0.002470755290007496  0.008956499107283494  0.0  1.0000
  Ga  Ga5       1.0  0.005325264262205062  0.006101989918508559  0.9997955403916767  1.0000
  Ga  Ga6       1.0  0.009616246907870107  0.0018110081473557132  0.9997955403916767  1.0000
  Pt  Pt1       1.0  0.007470755249776121  0.003956499090832075  0.9995910807833536  1.0000
  Pt  Pt2       1.0  0.002470755290007496  0.003956499093912401  0.9995910807833536  1.0000
  Pt  Pt3       1.0  0.007470755249776121  0.008956499104203168  0.9995910807833536  1.0000
  Pt  Pt4       1.0  0.00038375372409775297  0.006869497593554407  0.9993866211750303  1.0000
  Pt  Pt5       1.0  0.0045577568978249225  0.0010435007228330624  0.9993866211750303  1.0000
  Pt  Pt6       1.0  0.007470755249776121  0.003956499090832075  0.0  1.0000
  Pt  Pt7       1.0  0.002470755290007496  0.003956499093912401  0.0  1.0000
  Pt  Pt8       1.0  0.007470755249776121  0.008956499104203168  0.0  1.0000
  Pt  Pt9       1.0  0.00038375372409775297  0.006869497593554407  0.9997955403916767  1.0000
  Pt  Pt10      1.0  0.0045577568978249225  0.0010435007228330624  0.9997955403916767  1.0000
