data_image0
_chemical_formula_structural       COIn6Pd4In6Pd4
_chemical_formula_sum              "C1 O1 In12 Pd8"
_cell_length_a       8.079340934753418
_cell_length_b       7.31234802508269
_cell_length_c       37.34773254394531
_cell_angle_alpha    71.40030389992924
_cell_angle_beta     90.0
_cell_angle_gamma    56.4650841732338

_space_group_name_H-M_alt    "P 1"
_space_group_IT_number       1

loop_
  _space_group_symop_operation_xyz
  'x, y, z'

loop_
  _atom_site_type_symbol
  _atom_site_label
  _atom_site_symmetry_multiplicity
  _atom_site_fract_x
  _atom_site_fract_y
  _atom_site_fract_z
  _atom_site_occupancy
  C   C1        1.0  0.008320286260578815  0.009183047905332458  6.924922957151104e-05  1.0000
  O   O1        1.0  0.008320286260578815  0.009183047905332458  0.00039055372917541213  1.0000
  In  In1       1.0  0.00046922363989451656  0.00013892770092640614  0.9986827269076604  1.0000
  In  In2       1.0  0.005532757975787076  0.009861072815893646  0.9993432806992175  1.0000
  In  In3       1.0  0.008922174546901031  0.006566360025614428  0.9989058282257626  1.0000
  In  In4       1.0  0.0036597926844170597  0.006753570937149389  0.9995782505583501  1.0000
  In  In5       1.0  0.007076619303172962  0.0036763393329664047  0.9991125397023968  1.0000
  In  In6       1.0  0.0019927707894962753  0.0036585878458477105  0.9996807574423141  1.0000
  Pd  Pd1       1.0  0.0013781420434515225  0.0015893688543893816  0.9992218439070891  1.0000
  Pd  Pd2       1.0  0.006015710463822888  0.0020084540183958168  0.9997544483274059  1.0000
  Pd  Pd3       1.0  0.0045307767208107716  0.00868248891276276  0.9987736794433008  1.0000
  Pd  Pd4       1.0  0.00944794153183947  0.008711481773534578  0.9993801185496548  1.0000
  In  In7       1.0  0.00046922363989451656  0.00013892770092640614  0.9974337598302923  1.0000
  In  In8       1.0  0.0054692234831244645  0.00013892770092640614  0.9980582433689763  1.0000
  In  In9       1.0  0.008922174546901031  0.006566360025614428  0.9976568607494101  1.0000
  In  In10      1.0  0.0039221740120385  0.006566360025614428  0.9982813442880941  1.0000
  In  In11      1.0  0.007016273509745761  0.0037114953348927793  0.9978351423726436  1.0000
  In  In12      1.0  0.00201627297488323  0.0037114953348927793  0.9984596259113276  1.0000
  Pd  Pd5       1.0  0.0014076709577435429  0.0015953664477444485  0.9979672911551054  1.0000
  Pd  Pd6       1.0  0.0064076708009734905  0.0015953664477444485  0.9985917746937895  1.0000
  Pd  Pd7       1.0  0.0045307767208107716  0.00868248891276276  0.9975247119669481  1.0000
  Pd  Pd8       1.0  0.009530775872408135  0.00868248891276276  0.9981491955056323  1.0000
