data_image0
_chemical_formula_structural       HRe3V6W3Re3V6W3Re3V6W3Re3V6W3
_chemical_formula_sum              "H1 Re12 V24 W12"
_cell_length_a       8.654194831848145
_cell_length_b       8.654194687562669
_cell_length_c       38.202457427978516
_cell_angle_alpha    90.0
_cell_angle_beta     90.0
_cell_angle_gamma    120.00000055151581

_space_group_name_H-M_alt    "P 1"
_space_group_IT_number       1

loop_
  _space_group_symop_operation_xyz
  'x, y, z'

loop_
  _atom_site_type_symbol
  _atom_site_label
  _atom_site_symmetry_multiplicity
  _atom_site_fract_x
  _atom_site_fract_y
  _atom_site_fract_z
  _atom_site_occupancy
  H   H1        1.0  0.0016666911033476604  0.00416663924590118  0.0003225055250887584  1.0000
  Re  Re1       1.0  0.0008333088714891184  5.949999861376535e-09  0.9991606782154107  1.0000
  Re  Re2       1.0  0.004166690844482612  0.0016666392210485227  0.0  1.0000
  Re  Re3       1.0  0.002499975491587491  0.003333339082581444  0.9982358530610976  1.0000
  V   V1        1.0  0.0008333088714891184  5.949999861376535e-09  0.998467059349676  1.0000
  V   V2        1.0  0.004166656581604502  0.0016666731449260655  0.9993854235888899  1.0000
  V   V3        1.0  0.002499975491587491  0.003333339082581444  0.9975422338053052  1.0000
  V   V4        1.0  0.004166642127876606  0.0016666726478729147  0.9980046467725193  1.0000
  V   V5        1.0  0.002499975491587491  0.003333339082581444  0.9989294719268325  1.0000
  V   V6        1.0  0.0008333254458234373  0.00999999363771967  0.9998328103648244  1.0000
  W   W1        1.0  0.002499982300134899  0.003333316218136507  0.9996533522460331  1.0000
  W   W2        1.0  0.0008333088714891184  5.949999861376535e-09  0.9977734404839411  1.0000
  W   W3        1.0  0.004166642127876606  0.0016666726478729147  0.9986982656382541  1.0000
  Re  Re4       1.0  0.0008333088719465014  0.005000005765816549  0.9991606782154107  1.0000
  Re  Re5       1.0  0.004166690883104538  0.006666638897963975  0.0  1.0000
  Re  Re6       1.0  0.0024999755551816057  0.008333339132286758  0.9982358530610976  1.0000
  V   V7        1.0  0.0008333088719465014  0.005000005765816549  0.998467059349676  1.0000
  V   V8        1.0  0.004166656806621359  0.00666667319463138  0.9993854235888899  1.0000
  V   V9        1.0  0.0024999755551816057  0.008333339132286758  0.9975422338053052  1.0000
  V   V10       1.0  0.004166642191470722  0.00666667269757823  0.9980046467725193  1.0000
  V   V11       1.0  0.0024999755551816057  0.008333339132286758  0.9989294719268325  1.0000
  V   V12       1.0  0.0008333255064926098  0.00499999383654093  0.9998328103648244  1.0000
  W   W4        1.0  0.002499982417536595  0.008333316267841822  0.9996533522460331  1.0000
  W   W5        1.0  0.0008333088719465014  0.005000005765816549  0.9977734404839411  1.0000
  W   W6        1.0  0.004166642191470722  0.00666667269757823  0.9986982656382541  1.0000
  Re  Re7       1.0  0.00583330863258346  5.949999861376535e-09  0.9991606782154107  1.0000
  Re  Re8       1.0  0.009166690766999696  0.0016666392210485227  0.0  1.0000
  Re  Re9       1.0  0.007499975198874251  0.003333339082581444  0.9982358530610976  1.0000
  V   V13       1.0  0.00583330863258346  5.949999861376535e-09  0.998467059349676  1.0000
  V   V14       1.0  0.00916665607366094  0.0016666731449260655  0.9993854235888899  1.0000
  V   V15       1.0  0.007499975198874251  0.003333339082581444  0.9975422338053052  1.0000
  V   V16       1.0  0.00916664205039369  0.0016666726478729147  0.9980046467725193  1.0000
  V   V17       1.0  0.007499975198874251  0.003333339082581444  0.9989294719268325  1.0000
  V   V18       1.0  0.00583332526072536  0.00999999363771967  0.9998328103648244  1.0000
  W   W7        1.0  0.007499982276459564  0.003333316218136507  0.9996533522460331  1.0000
  W   W8        1.0  0.00583330863258346  5.949999861376535e-09  0.9977734404839411  1.0000
  W   W9        1.0  0.00916664205039369  0.0016666726478729147  0.9986982656382541  1.0000
  Re  Re10      1.0  0.005833308686848423  0.005000005765816549  0.9991606782154107  1.0000
  Re  Re11      1.0  0.009166690536583718  0.006666638897963975  0.0  1.0000
  Re  Re12      1.0  0.007499975370083527  0.008333339132286758  0.9982358530610976  1.0000
  V   V19       1.0  0.005833308686848423  0.005000005765816549  0.998467059349676  1.0000
  V   V20       1.0  0.00916665646010054  0.00666667319463138  0.9993854235888899  1.0000
  V   V21       1.0  0.007499975370083527  0.008333339132286758  0.9975422338053052  1.0000
  V   V22       1.0  0.009166642006372645  0.00666667269757823  0.9980046467725193  1.0000
  V   V23       1.0  0.007499975370083527  0.008333339132286758  0.9989294719268325  1.0000
  V   V24       1.0  0.005833325321394533  0.00499999383654093  0.9998328103648244  1.0000
  W   W10       1.0  0.007499982232438517  0.008333316267841822  0.9996533522460331  1.0000
  W   W11       1.0  0.005833308686848423  0.005000005765816549  0.9977734404839411  1.0000
  W   W12       1.0  0.009166642006372645  0.00666667269757823  0.9986982656382541  1.0000
