data_image0
_chemical_formula_structural       COAl3CuAl3CuAl3CuAl3CuAl3CuAl3Cu
_chemical_formula_sum              "C1 O1 Al18 Cu6"
_cell_length_a       5.634096622467041
_cell_length_b       8.266853649410496
_cell_length_c       100.98753356933594
_cell_angle_alpha    109.9234440812807
_cell_angle_beta     90.0
_cell_angle_gamma    90.0

_space_group_name_H-M_alt    "P 1"
_space_group_IT_number       1

loop_
  _space_group_symop_operation_xyz
  'x, y, z'

loop_
  _atom_site_type_symbol
  _atom_site_label
  _atom_site_symmetry_multiplicity
  _atom_site_fract_x
  _atom_site_fract_y
  _atom_site_fract_z
  _atom_site_occupancy
  C   C1        1.0  0.002500000171913182  0.0014324228638559753  0.00028557483780056517  1.0000
  O   O1        1.0  0.002500000171913182  0.0014324228638559753  0.00040440162655916087  1.0000
  Al  Al1       1.0  4.999999911421736e-11  0.0050622864084513995  0.9994347017007108  1.0000
  Al  Al2       1.0  0.0025000000066120456  0.007820053085218756  0.9996511046011349  1.0000
  Al  Al3       1.0  0.0025000000066120456  0.002304520450660298  0.9994972487602745  1.0000
  Cu  Cu1       1.0  4.999999911421736e-11  6.2286699187423e-05  0.9995741768912653  1.0000
  Al  Al4       1.0  4.999999911421736e-11  0.0050622864084513995  0.9997136516406426  1.0000
  Al  Al5       1.0  0.002500000171913182  0.007735690328713336  0.999917844012801  1.0000
  Al  Al6       1.0  0.0025000000066120456  0.002304520450660298  0.9997761989953152  1.0000
  Cu  Cu2       1.0  4.999999911421736e-11  6.2286699187423e-05  0.9998531268311971  1.0000
  Al  Al7       1.0  0.010000000026448182  0.00476470549168098  5.256832695096097e-06  1.0000
  Al  Al8       1.0  0.002499999841310909  0.007575808702957939  0.00017725929903541124  1.0000
  Al  Al9       1.0  0.0025000000066120456  0.0021436039784150365  5.979585552707387e-05  1.0000
  Cu  Cu3       1.0  1.4999999734265206e-10  0.009937712805467893  0.0001248195352329926  1.0000
  Al  Al10      1.0  0.005000000013224091  0.0050622864084513995  0.9994347017007108  1.0000
  Al  Al11      1.0  0.007500000185137273  0.007820053085218756  0.9996511046011349  1.0000
  Al  Al12      1.0  0.007500000185137273  0.002304520450660298  0.9994972487602745  1.0000
  Cu  Cu4       1.0  0.005000000013224091  6.2286699187423e-05  0.9995741768912653  1.0000
  Al  Al13      1.0  0.005000000013224091  0.0050622864084513995  0.9997136516406426  1.0000
  Al  Al14      1.0  0.007500000185137273  0.007735690328713336  0.999917844012801  1.0000
  Al  Al15      1.0  0.007500000185137273  0.002304520450660298  0.9997761989953152  1.0000
  Cu  Cu5       1.0  0.005000000013224091  6.2286699187423e-05  0.9998531268311971  1.0000
  Al  Al16      1.0  0.005000000013224091  0.00476470549168098  5.256832695096097e-06  1.0000
  Al  Al17      1.0  0.007499999523932727  0.007575808702957939  0.00017725929903541124  1.0000
  Al  Al18      1.0  0.007500000185137273  0.0021436039784150365  5.979585552707387e-05  1.0000
  Cu  Cu6       1.0  0.005000000013224091  0.009937712805467893  0.0001248195352329926  1.0000
