data_image0
_chemical_formula_structural       COCu8Sn8Cu8Sn8
_chemical_formula_sum              "C1 O1 Cu16 Sn16"
_cell_length_a       6.672399414400135
_cell_length_b       7.323907852172852
_cell_length_c       110.03439331054688
_cell_angle_alpha    90.0
_cell_angle_beta     101.34916842442003
_cell_angle_gamma    90.0

_space_group_name_H-M_alt    "P 1"
_space_group_IT_number       1

loop_
  _space_group_symop_operation_xyz
  'x, y, z'

loop_
  _atom_site_type_symbol
  _atom_site_label
  _atom_site_symmetry_multiplicity
  _atom_site_fract_x
  _atom_site_fract_y
  _atom_site_fract_z
  _atom_site_occupancy
  C   C1        1.0  0.00864601750052371  0.005833333245167698  0.00010712495325387368  1.0000
  O   O1        1.0  0.00864601750052371  0.005833333245167698  0.0002161814432568052  1.0000
  Cu  Cu1       1.0  0.005625000022777934  0.0008333332934892484  0.9997949772597949  1.0000
  Cu  Cu2       1.0  0.000624999962985857  0.0008333332934892484  0.9994917812847715  1.0000
  Cu  Cu3       1.0  0.003124999886110329  0.005833333245167698  0.9996433795418546  1.0000
  Cu  Cu4       1.0  0.008124999589997186  0.005833333245167698  0.999946575512631  1.0000
  Cu  Cu5       1.0  0.003124999886110329  0.0008333332934892484  0.9999465753915756  1.0000
  Cu  Cu6       1.0  0.008124999589997186  0.0008333332934892484  0.9996433796629101  1.0000
  Cu  Cu7       1.0  0.000624999962985857  0.005833333245167698  0.9997949776761835  1.0000
  Cu  Cu8       1.0  0.005625000022777934  0.005833333245167698  0.9994917814100739  1.0000
  Sn  Sn1       1.0  0.0043749999544441314  0.0041666665310272286  0.9998707763256852  1.0000
  Sn  Sn2       1.0  0.009374999658330987  0.0041666665310272286  0.9995675805970197  1.0000
  Sn  Sn3       1.0  0.0018749999601386151  0.009166666164800746  0.9997191786094438  1.0000
  Sn  Sn4       1.0  0.006875000091111736  0.009166666164800746  2.2374585316617443e-05  1.0000
  Sn  Sn5       1.0  0.0043749999544441314  0.002500000071210705  0.9995675804759643  1.0000
  Sn  Sn6       1.0  0.009374999658330987  0.002500000071210705  0.9998707764467407  1.0000
  Sn  Sn7       1.0  0.0018749999601386151  0.007499999959308169  2.2374459164770438e-05  1.0000
  Sn  Sn8       1.0  0.006875000091111736  0.007499999959308169  0.9997191781939045  1.0000
  Cu  Cu9       1.0  0.005625000022777934  0.0008333332934892484  0.999188585560353  1.0000
  Cu  Cu10      1.0  0.000624999962985857  0.0008333332934892484  0.9988853893144839  1.0000
  Cu  Cu11      1.0  0.003124999886110329  0.005833333245167698  0.9990369873007215  1.0000
  Cu  Cu12      1.0  0.008124999589997186  0.005833333245167698  0.999340183271498  1.0000
  Cu  Cu13      1.0  0.003124999886110329  0.0008333332934892484  0.9993401831504426  1.0000
  Cu  Cu14      1.0  0.008124999589997186  0.0008333332934892484  0.9990369871509315  1.0000
  Cu  Cu15      1.0  0.000624999962985857  0.005833333245167698  0.9991885854350505  1.0000
  Cu  Cu16      1.0  0.005625000022777934  0.005833333245167698  0.9988853891689409  1.0000
  Sn  Sn9       1.0  0.0043749999544441314  0.0041666665310272286  0.9992643840845522  1.0000
  Sn  Sn10      1.0  0.009374999658330987  0.0041666665310272286  0.9989611883558867  1.0000
  Sn  Sn11      1.0  0.0018749999601386151  0.009166666164800746  0.9991127863683107  1.0000
  Sn  Sn12      1.0  0.006875000091111736  0.009166666164800746  0.9994159823441836  1.0000
  Sn  Sn13      1.0  0.0043749999544441314  0.002500000071210705  0.9989611882348313  1.0000
  Sn  Sn14      1.0  0.009374999658330987  0.002500000071210705  0.9992643842056076  1.0000
  Sn  Sn15      1.0  0.0018749999601386151  0.007499999959308169  0.9994159822180317  1.0000
  Sn  Sn16      1.0  0.006875000091111736  0.007499999959308169  0.9991127862236171  1.0000
