data_image0
_chemical_formula_structural       COPt8W4Pt8W4Pt8W4
_chemical_formula_sum              "C1 O1 Pt24 W12"
_cell_length_a       8.428502126314116
_cell_length_b       8.838398961768712
_cell_length_c       100.90975952148438
_cell_angle_alpha    108.5376925053223
_cell_angle_beta     109.47466554341655
_cell_angle_gamma    83.91555191720218

_space_group_name_H-M_alt    "P 1"
_space_group_IT_number       1

loop_
  _space_group_symop_operation_xyz
  'x, y, z'

loop_
  _atom_site_type_symbol
  _atom_site_label
  _atom_site_symmetry_multiplicity
  _atom_site_fract_x
  _atom_site_fract_y
  _atom_site_fract_z
  _atom_site_occupancy
  C   C1        1.0  0.005636810760410228  0.002346164867975232  0.0002368481571617311  1.0000
  O   O1        1.0  0.005636810760410228  0.002346164867975232  0.0003557659384640978  1.0000
  Pt  Pt1       1.0  0.0025126172511852523  0.0017334126243659007  0.9995614834911749  1.0000
  Pt  Pt2       1.0  0.007512616979276487  0.0017334126243659007  0.9994222510371308  1.0000
  Pt  Pt3       1.0  1.2617300153735435e-05  0.0034735958235118654  0.9994010930942565  1.0000
  Pt  Pt4       1.0  0.005012616998028816  0.0034735958235118654  0.9995403253314871  1.0000
  Pt  Pt5       1.0  1.2617300153735435e-05  0.006733412637702555  0.9994918674173419  1.0000
  Pt  Pt6       1.0  0.005012616998028816  0.006733412637702555  0.9996310996545724  1.0000
  Pt  Pt7       1.0  0.0025126172511852523  0.008473596170264875  0.9994707092726244  1.0000
  Pt  Pt8       1.0  0.007512616979276487  0.008473596170264875  0.99960994121536  1.0000
  W   W1        1.0  1.2617300153735435e-05  0.0001035041061317711  0.999585712403469  1.0000
  W   W2        1.0  0.005012616998028816  0.0001035041061317711  0.9994464802439199  1.0000
  W   W3        1.0  0.0025126172511852523  0.005103504564023565  0.9993768638928157  1.0000
  W   W4        1.0  0.007512616979276487  0.005103504564023565  0.999516096426224  1.0000
  Pt  Pt9       1.0  0.0025126172511852523  0.0017334126243659007  0.9998399478879546  1.0000
  Pt  Pt10      1.0  0.007512616979276487  0.0017334126243659007  0.9997007157292469  1.0000
  Pt  Pt11      1.0  1.2617300153735435e-05  0.0034735958235118654  0.9996795574910362  1.0000
  Pt  Pt12      1.0  0.005012616998028816  0.0034735958235118654  0.9998187897282668  1.0000
  Pt  Pt13      1.0  1.2617300153735435e-05  0.006733412637702555  0.9997703318141216  1.0000
  Pt  Pt14      1.0  0.00491377441125639  0.006727127961690358  0.9999083489906682  1.0000
  Pt  Pt15      1.0  0.0025126172511852523  0.008473596170264875  0.9997491736694041  1.0000
  Pt  Pt16      1.0  0.007512616979276487  0.008473596170264875  0.9998884059074761  1.0000
  W   W5        1.0  1.2617300153735435e-05  0.0001035041061317711  0.9998641768002486  1.0000
  W   W6        1.0  0.005012616998028816  0.0001035041061317711  0.9997249446406996  1.0000
  W   W7        1.0  0.0025126172511852523  0.005103504564023565  0.9996553285849317  1.0000
  W   W8        1.0  0.007512616979276487  0.005103504564023565  0.9997945608230037  1.0000
  Pt  Pt17      1.0  0.0024185227540305955  0.0015721157943584373  0.00011112511332886531  1.0000
  Pt  Pt18      1.0  0.007589919234920593  0.0017587118128201793  1.1564027056614733e-06  1.0000
  Pt  Pt19      1.0  0.009981859859857398  0.0034337036680365507  0.9999638919832818  1.0000
  Pt  Pt20      1.0  0.00495116139772237  0.003340617378191038  9.359117197844554e-05  1.0000
  Pt  Pt21      1.0  0.009987382420648996  0.006676462456955682  5.081256628373737e-05  1.0000
  Pt  Pt22      1.0  0.005162194947618596  0.006561293335092776  0.00018319575221134902  1.0000
  Pt  Pt23      1.0  0.0024882047665179064  0.008352774974353792  3.839608290562332e-05  1.0000
  Pt  Pt24      1.0  0.007467192744745043  0.008499392815920655  0.00015613582207402106  1.0000
  W   W9        1.0  0.009971008824875874  0.009896496253957892  0.00011524381472697613  1.0000
  W   W10       1.0  0.004936685537610061  0.00010561080431634802  0.9999982227144384  1.0000
  W   W11       1.0  0.0025791950500663172  0.005105874487474157  0.9999549204273149  1.0000
  W   W12       1.0  0.007390698245658146  0.005072976073459116  5.2607486119241086e-05  1.0000
