data_image0
_chemical_formula_structural       HVCu3Se4VCu3Se4
_chemical_formula_sum              "H1 V2 Cu6 Se8"
_cell_length_a       5.705760478973389
_cell_length_b       5.705760478973389
_cell_length_c       104.23455810546875
_cell_angle_alpha    90.0
_cell_angle_beta     90.0
_cell_angle_gamma    90.0

_space_group_name_H-M_alt    "P 1"
_space_group_IT_number       1

loop_
  _space_group_symop_operation_xyz
  'x, y, z'

loop_
  _atom_site_type_symbol
  _atom_site_label
  _atom_site_symmetry_multiplicity
  _atom_site_fract_x
  _atom_site_fract_y
  _atom_site_fract_z
  _atom_site_occupancy
  H   H1        1.0  0.008686524656382453  0.000566417613722309  0.00011903195521053954  1.0000
  V   V1        1.0  0.0037101005966188607  0.0005553790355506175  0.9995231774034067  1.0000
  Cu  Cu1       1.0  0.0037101005966188607  0.005555378779287417  0.9995231774034067  1.0000
  Cu  Cu2       1.0  0.008710100217936934  0.0005553790355506175  0.9995231774034067  1.0000
  Cu  Cu3       1.0  0.0037211182819945803  0.0005631550322451056  0.9997932061448671  1.0000
  Se  Se1       1.0  0.005389920240288882  0.0016882143038014776  0.0  1.0000
  Se  Se2       1.0  0.006104973570822024  0.008157648336553192  0.9996552013792476  1.0000
  Se  Se3       1.0  0.0019831296666149084  0.00944462041111674  1.6634589794698259e-06  1.0000
  Se  Se4       1.0  0.0013124157458828448  0.0029528186815776605  0.9996551321875884  1.0000
  V   V2        1.0  0.0037101005966188607  0.0005553790355506175  0.9989757810299591  1.0000
  Cu  Cu4       1.0  0.0037101005966188607  0.005555378779287417  0.9989757810299591  1.0000
  Cu  Cu5       1.0  0.008710100217936934  0.0005553790355506175  0.9989757810299591  1.0000
  Cu  Cu6       1.0  0.0037101005966188607  0.0005553790355506175  0.999249478930767  1.0000
  Se  Se5       1.0  0.0061303021685385085  0.0029755804034390545  0.9993906965338826  1.0000
  Se  Se6       1.0  0.0061303021685385085  0.008135176828685843  0.9991082618994832  1.0000
  Se  Se7       1.0  0.0012898991879241812  0.008135176828685843  0.9993906965338826  1.0000
  Se  Se8       1.0  0.0012898991879241812  0.0029755804034390545  0.9991082618994832  1.0000
