data_image0
_chemical_formula_structural       COIn18Pd12
_chemical_formula_sum              "C1 O1 In18 Pd12"
_cell_length_a       9.848227983871967
_cell_length_b       7.312347965211364
_cell_length_c       101.10194396972656
_cell_angle_alpha    84.27556992779456
_cell_angle_beta     89.8267795495196
_cell_angle_gamma    90.7367856007976

_space_group_name_H-M_alt    "P 1"
_space_group_IT_number       1

loop_
  _space_group_symop_operation_xyz
  'x, y, z'

loop_
  _atom_site_type_symbol
  _atom_site_label
  _atom_site_symmetry_multiplicity
  _atom_site_fract_x
  _atom_site_fract_y
  _atom_site_fract_z
  _atom_site_occupancy
  C   C1        1.0  0.007523804156923549  0.0003673430729505416  2.2349626639286897e-05  1.0000
  O   O1        1.0  0.007523804156923549  0.0003673430729505416  0.00014104194695993566  1.0000
  In  In1       1.0  0.0008381677740307767  0.005000000158597635  0.9995095297749872  1.0000
  In  In2       1.0  0.007504834434392361  0.007380952760818479  0.9992165493395658  1.0000
  In  In3       1.0  0.004171501151499685  0.0011904762506324646  0.999363039499816  1.0000
  In  In4       1.0  0.007584579600926429  0.0013385736753568052  0.999359535140949  1.0000
  In  In5       1.0  0.0042512459397288215  0.0051480975782424825  0.9995060254162406  1.0000
  In  In6       1.0  0.0009179124676836794  0.0075290500142512  0.9992130448118247  1.0000
  In  In7       1.0  0.0007584229858016409  0.0010423787669869536  0.9993665441537993  1.0000
  In  In8       1.0  0.007425090024468157  0.004851902910244408  0.9995130343026082  1.0000
  In  In9       1.0  0.004091756363270549  0.007232855342866795  0.9992200539930475  1.0000
  In  In10      1.0  0.0008381677740307767  0.00642857175686225  0.9999490003589161  1.0000
  In  In11      1.0  0.007504834434392361  0.008809524359083094  0.9996560199234947  1.0000
  In  In12      1.0  0.004171501151499685  0.0026190477208957535  0.9998025100846683  1.0000
  In  In13      1.0  0.007584579600926429  0.0027671451456200945  0.9997990057258013  1.0000
  In  In14      1.0  0.0042512459397288215  0.006576669176507097  0.9999454960001695  1.0000
  In  In15      1.0  0.0009179124676836794  0.008957621612515815  0.9996525156905285  1.0000
  In  In16      1.0  0.0007584229858016409  0.0024709503012509057  0.9998060150329648  1.0000
  In  In17      1.0  0.007425090024468157  0.006280473996503719  0.9999525051850058  1.0000
  In  In18      1.0  0.004091756363270549  0.008661426429126108  0.999659524875445  1.0000
  Pd  Pd1       1.0  0.009241577146605085  0.004415855539893659  0.9992867148648772  1.0000
  Pd  Pd2       1.0  0.005908243863712409  0.008225379577553319  0.999433205139085  1.0000
  Pd  Pd3       1.0  0.0025749103916672678  0.0006063316577183496  0.9991402247141011  1.0000
  Pd  Pd4       1.0  0.009101425005072312  0.00796509703034295  0.9994393644224442  1.0000
  Pd  Pd5       1.0  0.005768092100484569  0.00034604936066945315  0.9991463839954886  1.0000
  Pd  Pd6       1.0  0.002434758628439427  0.004155573346942288  0.9992928739753479  1.0000
  Pd  Pd7       1.0  0.009241577146605085  0.005844427138158274  0.999726185448806  1.0000
  Pd  Pd8       1.0  0.005908243863712409  0.009653951175817934  0.9998726757230139  1.0000
  Pd  Pd9       1.0  0.0025749103916672678  0.0020349030639809757  0.9995796952994151  1.0000
  Pd  Pd10      1.0  0.009101425005072312  0.009393669140612869  0.9998788352974544  1.0000
  Pd  Pd11      1.0  0.005768092100484569  0.0017746207829322448  0.9995858548754621  1.0000
  Pd  Pd12      1.0  0.002434758628439427  0.005584144945206902  0.9997323451488267  1.0000
