data_image0
_chemical_formula_structural       CONi12Ge12Ni12Ge12
_chemical_formula_sum              "C1 O1 Ni24 Ge24"
_cell_length_a       7.071288585662842
_cell_length_b       12.35107958230758
_cell_length_c       102.01781463623047
_cell_angle_alpha    104.29243861989747
_cell_angle_beta     90.0
_cell_angle_gamma    90.0

_space_group_name_H-M_alt    "P 1"
_space_group_IT_number       1

loop_
  _space_group_symop_operation_xyz
  'x, y, z'

loop_
  _atom_site_type_symbol
  _atom_site_label
  _atom_site_symmetry_multiplicity
  _atom_site_fract_x
  _atom_site_fract_y
  _atom_site_fract_z
  _atom_site_occupancy
  C   C1        1.0  0.0037500001791185137  0.0009393289502950911  0.00019259931184169882  1.0000
  O   O1        1.0  0.0037500001791185137  0.0009393289502950911  0.00031022548092637394  1.0000
  Ni  Ni1       1.0  0.0037500001791185137  0.0027359093705680445  0.9999653866796012  1.0000
  Ni  Ni2       1.0  0.0037500001791185137  0.009417927764872703  0.9994581080847581  1.0000
  Ni  Ni3       1.0  0.0037500001791185137  0.00608459462243955  0.9997196459116803  1.0000
  Ni  Ni4       1.0  0.001250000015804575  0.003974651920580638  0.9993987357008006  1.0000
  Ni  Ni5       1.0  0.001250000015804575  0.0006413188948663442  0.9996602732390827  1.0000
  Ni  Ni6       1.0  0.001250000015804575  0.007292814101245805  0.9999146227517264  1.0000
  Ni  Ni7       1.0  0.0037500001791185137  0.0005820720903959095  1.7397064850114837e-05  1.0000
  Ni  Ni8       1.0  0.0037500001791185137  0.0073512650387177435  0.9995261087058415  1.0000
  Ni  Ni9       1.0  0.0037500001791185137  0.00400505889542779  0.9997834208754658  1.0000
  Ni  Ni10      1.0  0.001250000015804575  0.006041314024235013  0.9993307350611118  1.0000
  Ni  Ni11      1.0  0.001250000015804575  0.0027079811930521523  0.9995922728973367  1.0000
  Ni  Ni12      1.0  0.001250000015804575  0.009362089462357897  0.999855327943868  1.0000
  Ge  Ge1       1.0  0.0037500001791185137  0.005364862558045938  0.9994631961433325  1.0000
  Ge  Ge2       1.0  0.0037500001791185137  0.0020315292599876384  0.9997247339656034  1.0000
  Ge  Ge3       1.0  0.0037500001791185137  0.008641555617210226  0.9999839048428436  1.0000
  Ge  Ge4       1.0  0.0012499997523949958  0.0013998307615128345  0.999929218115149  1.0000
  Ge  Ge5       1.0  0.001250000015804575  0.008027717127407403  0.9993936476422262  1.0000
  Ge  Ge6       1.0  0.001250000015804575  0.004694383673723957  0.9996551854598457  1.0000
  Ge  Ge7       1.0  0.0037500001791185137  0.002623679051267674  0.9994253488299985  1.0000
  Ge  Ge8       1.0  0.0037500001791185137  0.009290345647384273  0.9996868868126983  1.0000
  Ge  Ge9       1.0  0.0037500001791185137  0.005937843221922793  0.999956327524478  1.0000
  Ge  Ge10      1.0  0.001250000015804575  0.004085947555251957  0.9999542006785114  1.0000
  Ge  Ge11      1.0  0.001250000015804575  0.0007689009734484875  0.9994314948021081  1.0000
  Ge  Ge12      1.0  0.001250000015804575  0.007435567180502221  0.9996930324810511  1.0000
  Ni  Ni13      1.0  0.008749999978927234  0.0027359093705680445  0.9999653866796012  1.0000
  Ni  Ni14      1.0  0.008749999978927234  0.009417927764872703  0.9994581080847581  1.0000
  Ni  Ni15      1.0  0.008749999978927234  0.00608459462243955  0.9997196459116803  1.0000
  Ni  Ni16      1.0  0.006250000210727663  0.003974651920580638  0.9993987357008006  1.0000
  Ni  Ni17      1.0  0.006250000210727663  0.0006413188948663442  0.9996602732390827  1.0000
  Ni  Ni18      1.0  0.006250000210727663  0.007292814101245805  0.9999146227517264  1.0000
  Ni  Ni19      1.0  0.008750000505746392  0.0005820720903959095  1.7397064850114837e-05  1.0000
  Ni  Ni20      1.0  0.008749999978927234  0.0073512650387177435  0.9995261087058415  1.0000
  Ni  Ni21      1.0  0.008749999978927234  0.00400505889542779  0.9997834208754658  1.0000
  Ni  Ni22      1.0  0.006250000210727663  0.006041314024235013  0.9993307350611118  1.0000
  Ni  Ni23      1.0  0.006250000210727663  0.0027079811930521523  0.9995922728973367  1.0000
  Ni  Ni24      1.0  0.006250000210727663  0.009362089462357897  0.999855327943868  1.0000
  Ge  Ge13      1.0  0.008749999978927234  0.005364862558045938  0.9994631961433325  1.0000
  Ge  Ge14      1.0  0.008749999978927234  0.0020315292599876384  0.9997247339656034  1.0000
  Ge  Ge15      1.0  0.008749999978927234  0.008641555617210226  0.9999839048428436  1.0000
  Ge  Ge16      1.0  0.006249999683908505  0.0013998307615128345  0.999929218115149  1.0000
  Ge  Ge17      1.0  0.006250000210727663  0.008027717127407403  0.9993936476422262  1.0000
  Ge  Ge18      1.0  0.006250000210727663  0.004694383673723957  0.9996551854598457  1.0000
  Ge  Ge19      1.0  0.008749999978927234  0.002623679051267674  0.9994253488299985  1.0000
  Ge  Ge20      1.0  0.008749999978927234  0.009290345647384273  0.9996868868126983  1.0000
  Ge  Ge21      1.0  0.008749999978927234  0.005937843221922793  0.999956327524478  1.0000
  Ge  Ge22      1.0  0.006250000210727663  0.004085947555251957  0.9999542006785114  1.0000
  Ge  Ge23      1.0  0.006250000210727663  0.0007689009734484875  0.9994314948021081  1.0000
  Ge  Ge24      1.0  0.006250000210727663  0.007435567180502221  0.9996930324810511  1.0000
