data_image0
_chemical_formula_structural       HMn4Ga4Ge4Mn4Ga4Ge4Mn4Ga4Ge4Mn4Ga4Ge4
_chemical_formula_sum              "H1 Mn16 Ga16 Ge16"
_cell_length_a       12.385151574742235
_cell_length_b       7.842660427093506
_cell_length_c       101.37064361572266
_cell_angle_alpha    90.0
_cell_angle_beta     71.54163599878827
_cell_angle_gamma    90.0

_space_group_name_H-M_alt    "P 1"
_space_group_IT_number       1

loop_
  _space_group_symop_operation_xyz
  'x, y, z'

loop_
  _atom_site_type_symbol
  _atom_site_label
  _atom_site_symmetry_multiplicity
  _atom_site_fract_x
  _atom_site_fract_y
  _atom_site_fract_z
  _atom_site_occupancy
  H   H1        1.0  0.005169802679350952  0.003750009034564499  0.9998000160330296  1.0000
  Mn  Mn1       1.0  0.0012578834797457594  5.000000201435474e-10  0.999430476795088  1.0000
  Mn  Mn2       1.0  0.006352382194931183  3.899999828695732e-09  0.99962391930672  1.0000
  Mn  Mn3       1.0  0.0013655234365582119  0.00250000008550061  0.9996182696141737  1.0000
  Mn  Mn4       1.0  0.00625788374928107  0.0025000005605040013  0.9994304767729019  1.0000
  Ga  Ga1       1.0  0.004920820229055038  0.0025000140981006488  0.9997145005258367  1.0000
  Ga  Ga2       1.0  0.009830829238256936  0.0025000005605040013  0.99950084442489  1.0000
  Ga  Ga3       1.0  0.0027303511549150454  0.009999997491982094  0.999575223270601  1.0000
  Ga  Ga4       1.0  0.007828362628671717  3.2999998724732554e-09  0.9997471224584915  1.0000
  Ge  Ge1       1.0  0.0025553876988295395  0.00250000008550061  0.9997561514545502  1.0000
  Ge  Ge2       1.0  0.00758168264412795  0.0025000026980192616  0.9995734932553011  1.0000
  Ge  Ge3       1.0  0.00495361791983378  8.999999909585319e-10  0.9994946487298253  1.0000
  Ge  Ge4       1.0  0.00014685325190927397  0.009999999391995659  0.9996976614724572  1.0000
  Mn  Mn5       1.0  0.0012578834797457594  5.000000201435474e-10  0.999043645576947  1.0000
  Mn  Mn6       1.0  0.00625788374928107  5.000000201435474e-10  0.9992370613108281  1.0000
  Mn  Mn7       1.0  0.0012578834797457594  0.0025000005605040013  0.9992370610390208  1.0000
  Mn  Mn8       1.0  0.00625788374928107  0.0025000005605040013  0.9990436455547609  1.0000
  Ga  Ga5       1.0  0.004776747897802154  0.0025000005605040013  0.9992943562293333  1.0000
  Ga  Ga6       1.0  0.009776747770962008  0.0025000005605040013  0.9991009407604065  1.0000
  Ga  Ga7       1.0  0.002739019093399401  5.000000201435474e-10  0.9991797661297155  1.0000
  Ga  Ga8       1.0  0.007739018966559255  5.000000201435474e-10  0.9993731818789295  1.0000
  Ge  Ge5       1.0  0.0026626201023975424  0.0025000005605040013  0.9993761372351918  1.0000
  Ge  Ge6       1.0  0.007662619975557396  0.0025000005605040013  0.9991827217662649  1.0000
  Ge  Ge7       1.0  0.004853146888804013  5.000000201435474e-10  0.999097985123857  1.0000
  Ge  Ge8       1.0  0.009853146761963867  5.000000201435474e-10  0.9992914008730711  1.0000
  Mn  Mn9       1.0  0.0012578834797457594  0.005000000646004612  0.999430476795088  1.0000
  Mn  Mn10      1.0  0.006352382194931183  0.005000003971028349  0.99962391930672  1.0000
  Mn  Mn11      1.0  0.0013655234365582119  0.0075000000190001345  0.9996182696141737  1.0000
  Mn  Mn12      1.0  0.00625788374928107  0.007500000494003526  0.9994304767729019  1.0000
  Ga  Ga9       1.0  0.004920820229055038  0.007500014269101869  0.9997145005258367  1.0000
  Ga  Ga10      1.0  0.009830829238256936  0.007500000494003526  0.99950084442489  1.0000
  Ga  Ga11      1.0  0.0027303511549150454  0.0049999977959842646  0.999575223270601  1.0000
  Ga  Ga12      1.0  0.007828362628671717  0.005000003496024958  0.9997471224584915  1.0000
  Ge  Ge9       1.0  0.0025553876988295395  0.0075000000190001345  0.9997561514545502  1.0000
  Ge  Ge10      1.0  0.00758168264412795  0.007500002869020482  0.9995734932553011  1.0000
  Ge  Ge11      1.0  0.00495361791983378  0.005000000646004612  0.9994946487298253  1.0000
  Ge  Ge12      1.0  0.00014685325190927397  0.0049999996959978294  0.9996976614724572  1.0000
  Mn  Mn13      1.0  0.0012578834797457594  0.005000000646004612  0.999043645576947  1.0000
  Mn  Mn14      1.0  0.00625788374928107  0.005000000646004612  0.9992370613108281  1.0000
  Mn  Mn15      1.0  0.0012578834797457594  0.007500000494003526  0.9992370610390208  1.0000
  Mn  Mn16      1.0  0.00625788374928107  0.007500000494003526  0.9990436455547609  1.0000
  Ga  Ga13      1.0  0.004776747897802154  0.007500000494003526  0.9992943562293333  1.0000
  Ga  Ga14      1.0  0.009776747770962008  0.007500000494003526  0.9991009407604065  1.0000
  Ga  Ga15      1.0  0.002739019093399401  0.005000000646004612  0.9991797661297155  1.0000
  Ga  Ga16      1.0  0.007739018966559255  0.005000000646004612  0.9993731818789295  1.0000
  Ge  Ge13      1.0  0.0026626201023975424  0.007500000494003526  0.9993761372351918  1.0000
  Ge  Ge14      1.0  0.007662619975557396  0.007500000494003526  0.9991827217662649  1.0000
  Ge  Ge15      1.0  0.004853146888804013  0.005000000646004612  0.999097985123857  1.0000
  Ge  Ge16      1.0  0.009853146761963867  0.005000000646004612  0.9992914008730711  1.0000
