data_image0
_chemical_formula_structural       CONa2Ga8Na2Ga8Na2Ga8Na2Ga8
_chemical_formula_sum              "C1 O1 Na8 Ga32"
_cell_length_a       8.553122520446777
_cell_length_b       11.33636474609375
_cell_length_c       99.93592834472656
_cell_angle_alpha    90.0
_cell_angle_beta     90.0
_cell_angle_gamma    90.0

_space_group_name_H-M_alt    "P 1"
_space_group_IT_number       1

loop_
  _space_group_symop_operation_xyz
  'x, y, z'

loop_
  _atom_site_type_symbol
  _atom_site_label
  _atom_site_symmetry_multiplicity
  _atom_site_fract_x
  _atom_site_fract_y
  _atom_site_fract_z
  _atom_site_occupancy
  C   C1        1.0  0.0012500000304883183  0.0005522480966534773  0.00020012803460957727  1.0000
  O   O1        1.0  0.0012500000304883183  0.0005522480966534773  0.0003202052132324773  1.0000
  Na  Na1       1.0  0.0012500000304883183  0.0005522480966534773  0.9995720696442316  1.0000
  Na  Na2       1.0  0.003749999982578104  0.005552248236314508  0.9993581044663474  1.0000
  Ga  Ga1       1.0  0.003749999982578104  0.003052248104868832  0.9995720696442316  1.0000
  Ga  Ga2       1.0  0.0012500000304883183  0.004447751960854006  0.9995720696442316  1.0000
  Ga  Ga3       1.0  0.003749999982578104  0.0016567442488836582  0.9993581044663474  1.0000
  Ga  Ga4       1.0  0.0012500000304883183  0.003052248104868832  0.9993581044663474  1.0000
  Ga  Ga5       1.0  0.0012500000304883183  0.008052248367760183  0.9993581044663474  1.0000
  Ga  Ga6       1.0  0.003749999982578104  0.009447751895131168  0.9993581044663474  1.0000
  Ga  Ga7       1.0  0.0012500000304883183  0.006656744183160821  0.9995720696442316  1.0000
  Ga  Ga8       1.0  0.003749999982578104  0.008052248367760183  0.9995720696442316  1.0000
  Na  Na3       1.0  0.0012500000304883183  0.0005522480966534773  0.0  1.0000
  Na  Na4       1.0  0.003749999982578104  0.005552248236314508  0.9997860348221158  1.0000
  Ga  Ga9       1.0  0.003749999982578104  0.003052248104868832  0.0  1.0000
  Ga  Ga10      1.0  0.0012500000304883183  0.004447751960854006  0.0  1.0000
  Ga  Ga11      1.0  0.003749999982578104  0.0016567442488836582  0.9997860348221158  1.0000
  Ga  Ga12      1.0  0.0012500000304883183  0.003052248104868832  0.9997860348221158  1.0000
  Ga  Ga13      1.0  0.0012500000304883183  0.008052248367760183  0.9997860348221158  1.0000
  Ga  Ga14      1.0  0.003749999982578104  0.009447751895131168  0.9997860348221158  1.0000
  Ga  Ga15      1.0  0.0012500000304883183  0.006656744183160821  0.0  1.0000
  Ga  Ga16      1.0  0.003749999982578104  0.008052248367760183  0.0  1.0000
  Na  Na5       1.0  0.006250000261328442  0.0005522480966534773  0.9995720696442316  1.0000
  Na  Na6       1.0  0.008750000104531377  0.005552248236314508  0.9993581044663474  1.0000
  Ga  Ga17      1.0  0.008750000104531377  0.003052248104868832  0.9995720696442316  1.0000
  Ga  Ga18      1.0  0.006250000261328442  0.004447751960854006  0.9995720696442316  1.0000
  Ga  Ga19      1.0  0.008750000104531377  0.0016567442488836582  0.9993581044663474  1.0000
  Ga  Ga20      1.0  0.006250000261328442  0.003052248104868832  0.9993581044663474  1.0000
  Ga  Ga21      1.0  0.006250000261328442  0.008052248367760183  0.9993581044663474  1.0000
  Ga  Ga22      1.0  0.008750000104531377  0.009447751895131168  0.9993581044663474  1.0000
  Ga  Ga23      1.0  0.006250000261328442  0.006656744183160821  0.9995720696442316  1.0000
  Ga  Ga24      1.0  0.008750000104531377  0.008052248367760183  0.9995720696442316  1.0000
  Na  Na7       1.0  0.006250000261328442  0.0005522480966534773  0.0  1.0000
  Na  Na8       1.0  0.008750000104531377  0.005552248236314508  0.9997860348221158  1.0000
  Ga  Ga25      1.0  0.008750000104531377  0.003052248104868832  0.0  1.0000
  Ga  Ga26      1.0  0.006250000261328442  0.004447751960854006  0.0  1.0000
  Ga  Ga27      1.0  0.008750000104531377  0.0016567442488836582  0.9997860348221158  1.0000
  Ga  Ga28      1.0  0.006250000261328442  0.003052248104868832  0.9997860348221158  1.0000
  Ga  Ga29      1.0  0.006250000261328442  0.008052248367760183  0.9997860348221158  1.0000
  Ga  Ga30      1.0  0.008750000104531377  0.009447751895131168  0.9997860348221158  1.0000
  Ga  Ga31      1.0  0.006250000261328442  0.006656744183160821  0.0  1.0000
  Ga  Ga32      1.0  0.008750000104531377  0.008052248367760183  0.0  1.0000
