data_image0
_chemical_formula_structural       HV9Si18V9Si18
_chemical_formula_sum              "H1 V18 Si36"
_cell_length_a       7.869138678668395
_cell_length_b       12.124821831451557
_cell_length_c       102.07926177978516
_cell_angle_alpha    100.89339430527622
_cell_angle_beta     73.07108088486889
_cell_angle_gamma    63.881411215389086

_space_group_name_H-M_alt    "P 1"
_space_group_IT_number       1

loop_
  _space_group_symop_operation_xyz
  'x, y, z'

loop_
  _atom_site_type_symbol
  _atom_site_label
  _atom_site_symmetry_multiplicity
  _atom_site_fract_x
  _atom_site_fract_y
  _atom_site_fract_z
  _atom_site_occupancy
  H   H1        1.0  0.003790638635579096  0.0013019961504984387  3.012330401905309e-05  1.0000
  V   V1        1.0  0.006678120192827685  0.002831287825474929  0.9996811458800752  1.0000
  V   V2        1.0  0.00681704355934974  0.006007953448252192  0.9999553541301606  1.0000
  V   V3        1.0  0.006652019322647734  0.009522646529821327  0.999824806888913  1.0000
  V   V4        1.0  0.00013852859777597478  0.009946489649326743  0.9998704322661304  1.0000
  V   V5        1.0  0.00994810382966689  0.0034092428416895725  0.9997370943009326  1.0000
  V   V6        1.0  1.1453200379365492e-05  0.006720176898049609  0.9995813811082234  1.0000
  V   V7        1.0  0.003344786622672534  0.0006090656884509715  0.9997060870276545  1.0000
  V   V8        1.0  0.0034792535655209598  0.003876526562558097  0.9999877989024496  1.0000
  V   V9        1.0  0.0034401604951242596  0.0072455281505169585  0.9998429506676035  1.0000
  Si  Si1       1.0  0.0032286004800528884  0.0018170891195974774  0.9999517030713012  1.0000
  Si  Si2       1.0  0.003272444642581742  0.005126651675807457  0.9998192620360908  1.0000
  Si  Si3       1.0  0.003344786622672534  0.008399593014405755  0.9996539147919394  1.0000
  Si  Si4       1.0  0.009959529511793857  0.0020964647069395236  0.9999335409962432  1.0000
  Si  Si5       1.0  0.009988546784424972  0.005691179389196499  0.9997791720113776  1.0000
  Si  Si6       1.0  1.1453200379365492e-05  0.008967897928773533  0.9996318357613507  1.0000
  Si  Si7       1.0  0.006673731612781364  0.0016635046218481562  0.999885233547313  1.0000
  Si  Si8       1.0  0.006650727090810846  0.005019658574552613  0.9997253419261336  1.0000
  Si  Si9       1.0  0.006678120192827685  0.008374093651381373  0.9995785189806978  1.0000
  Si  Si10      1.0  0.0033083010187245337  0.002829461351690329  0.9997594776430782  1.0000
  Si  Si11      1.0  0.003344786622672534  0.00615187198368183  0.9996086119372448  1.0000
  Si  Si12      1.0  0.0032868927146291445  0.009558700394287292  0.9999128956165588  1.0000
  Si  Si13      1.0  0.009899690850159081  0.007899741761759135  0.9998425651396068  1.0000
  Si  Si14      1.0  1.1453200379365492e-05  0.0011391226966914823  0.9996805732541414  1.0000
  Si  Si15      1.0  4.306320103169507e-05  0.0047263137357011695  0.9999769134087946  1.0000
  Si  Si16      1.0  0.006678120192827685  0.0006218148573197443  0.9996341253894785  1.0000
  Si  Si17      1.0  0.006645985025084043  0.003967592183394386  0.9999398780453984  1.0000
  Si  Si18      1.0  0.006637280658582934  0.007346918612949001  0.9997894720148943  1.0000
  V   V10       1.0  0.006678120192827685  0.002831287825474929  0.9992322051552304  1.0000
  V   V11       1.0  0.006678120192827685  0.006164621308992076  0.9995314990880532  1.0000
  V   V12       1.0  0.006678120192827685  0.009497954166743336  0.9993818519900318  1.0000
  V   V13       1.0  1.1453200379365492e-05  5.3510199899095616e-05  0.999431734265411  1.0000
  V   V14       1.0  1.1453200379365492e-05  0.0033868434145324622  0.9992820874673534  1.0000
  V   V15       1.0  1.1453200379365492e-05  0.006720176898049609  0.9991324406753314  1.0000
  V   V16       1.0  0.003344786622672534  0.0006090656884509715  0.9992571463028097  1.0000
  V   V17       1.0  0.003344786622672534  0.003942399015526646  0.9995564402321209  1.0000
  V   V18       1.0  0.003344786622672534  0.0072757324990437924  0.9994067931481461  1.0000
  Si  Si19      1.0  0.003344786622672534  0.0017329260473714617  0.9995042679430914  1.0000
  Si  Si20      1.0  0.003344786622672534  0.005066259530888608  0.9993546214430221  1.0000
  Si  Si21      1.0  0.003344786622672534  0.008399593014405755  0.9992049746510001  1.0000
  Si  Si22      1.0  1.1453200379365492e-05  0.0023012309617392395  0.9994821889125027  1.0000
  Si  Si23      1.0  1.1453200379365492e-05  0.005634564445256386  0.9993325421204807  1.0000
  Si  Si24      1.0  1.1453200379365492e-05  0.008967897928773533  0.9991828953284587  1.0000
  Si  Si25      1.0  0.006678120192827685  0.0017074276229959108  0.9994288721529196  1.0000
  Si  Si26      1.0  0.006678120192827685  0.005040760793630114  0.9992792256458272  1.0000
  Si  Si27      1.0  0.006678120192827685  0.008374093651381373  0.9991295788397585  1.0000
  Si  Si28      1.0  0.003344786622672534  0.002818538500164684  0.999309318004422  1.0000
  Si  Si29      1.0  0.003344786622672534  0.00615187198368183  0.9991596712124  1.0000
  Si  Si30      1.0  0.003344786622672534  0.009485204841433089  0.9994589648392235  1.0000
  Si  Si31      1.0  1.1453200379365492e-05  0.007805789350842832  0.999381279663074  1.0000
  Si  Si32      1.0  1.1453200379365492e-05  0.0011391226966914823  0.9992316328212493  1.0000
  Si  Si33      1.0  1.1453200379365492e-05  0.004472455867325685  0.999530926455096  1.0000
  Si  Si34      1.0  0.006678120192827685  0.0006218148573197443  0.9991851846646337  1.0000
  Si  Si35      1.0  0.006678120192827685  0.003955148340836891  0.9994844785974565  1.0000
  Si  Si36      1.0  0.006678120192827685  0.007288481824354038  0.9993348315134817  1.0000
