data_image0
_chemical_formula_structural       COFe4Sb4As4Fe4Sb4As4Fe4Sb4As4
_chemical_formula_sum              "C1 O1 Fe12 Sb12 As12"
_cell_length_a       11.608888522905405
_cell_length_b       6.306142330169678
_cell_length_c       100.69869232177734
_cell_angle_alpha    90.0
_cell_angle_beta     74.66624531382412
_cell_angle_gamma    90.0

_space_group_name_H-M_alt    "P 1"
_space_group_IT_number       1

loop_
  _space_group_symop_operation_xyz
  'x, y, z'

loop_
  _atom_site_type_symbol
  _atom_site_label
  _atom_site_symmetry_multiplicity
  _atom_site_fract_x
  _atom_site_fract_y
  _atom_site_fract_z
  _atom_site_occupancy
  C   C1        1.0  0.003635349693538176  0.004969838613244265  0.9998667386634272  1.0000
  O   O1        1.0  0.003635349693538176  0.004969838613244265  0.9999859056996356  1.0000
  Fe  Fe1       1.0  0.0035597789901666787  0.002665096768121199  0.9997528421091892  1.0000
  Fe  Fe2       1.0  0.008639441737669291  0.002617103576526894  0.9996208873023541  1.0000
  Fe  Fe3       1.0  0.0014422606831252717  0.007498858430462326  0.9996784130878826  1.0000
  Fe  Fe4       1.0  0.0064742670336877155  0.007897411781067573  0.9998026275071255  1.0000
  Sb  Sb1       1.0  0.00457794492375807  0.009103188254781364  0.9997629889570839  1.0000
  Sb  Sb2       1.0  0.009700903445657522  0.008947541270322684  0.9996033037801882  1.0000
  Sb  Sb3       1.0  0.0002990965934400095  0.004063680723782544  0.9997309116458574  1.0000
  Sb  Sb4       1.0  0.005338647124632181  0.003972321902108585  0.9995824448558237  1.0000
  As  As1       1.0  0.00275027391963412  0.005967355029009964  0.9997943271448174  1.0000
  As  As2       1.0  0.007876699144774143  0.006144965134621793  0.9996390164560228  1.0000
  As  As3       1.0  0.0021574744867678035  0.001067881963623802  0.9996688287089318  1.0000
  As  As4       1.0  0.007358749689721991  0.0008968115709503462  0.999802768223651  1.0000
  Fe  Fe5       1.0  0.003643452033021587  0.002619655277805062  0.9994705299605439  1.0000
  Fe  Fe6       1.0  0.008643451979782396  0.002619655277805062  0.9993181015159447  1.0000
  Fe  Fe7       1.0  0.001377239575143371  0.0076196553014346614  0.9993871887288094  1.0000
  Fe  Fe8       1.0  0.006377239272345468  0.0076196553014346614  0.9995396174447033  1.0000
  Sb  Sb5       1.0  0.004657039728873666  0.00896607514597988  0.9994396300410261  1.0000
  Sb  Sb6       1.0  0.009657039675634475  0.00896607514597988  0.9992872015964269  1.0000
  Sb  Sb7       1.0  0.0003636517129188178  0.003966075417720263  0.9994180886533991  1.0000
  Sb  Sb8       1.0  0.005363651576493389  0.003966075417720263  0.999265660211336  1.0000
  As  As5       1.0  0.00280119071794711  0.006110738842538329  0.9994962068772578  1.0000
  As  As6       1.0  0.007801190664707918  0.006110738842538329  0.9993437784326586  1.0000
  As  As7       1.0  0.002219500807031611  0.0011107389665937213  0.9993615118146314  1.0000
  As  As8       1.0  0.0072195005874199445  0.0011107389665937213  0.9995139405279894  1.0000
  Fe  Fe9       1.0  0.003643452033021587  0.002619655277805062  0.9991656733995695  1.0000
  Fe  Fe10      1.0  0.008643451979782396  0.002619655277805062  0.9990132449549703  1.0000
  Fe  Fe11      1.0  0.001377239575143371  0.0076196553014346614  0.9990823318718797  1.0000
  Fe  Fe12      1.0  0.006377239272345468  0.0076196553014346614  0.9992347602918182  1.0000
  Sb  Sb9       1.0  0.004657039728873666  0.00896607514597988  0.9991347734800518  1.0000
  Sb  Sb10      1.0  0.009657039675634475  0.00896607514597988  0.9989823450354526  1.0000
  Sb  Sb11      1.0  0.0003636517129188178  0.003966075417720263  0.9991132317964694  1.0000
  Sb  Sb12      1.0  0.005363651576493389  0.003966075417720263  0.9989608033544062  1.0000
  As  As9       1.0  0.00280119071794711  0.006110738842538329  0.9991913503162835  1.0000
  As  As10      1.0  0.007801190664707918  0.006110738842538329  0.9990389218716843  1.0000
  As  As11      1.0  0.002219500807031611  0.0011107389665937213  0.9990566549577017  1.0000
  As  As12      1.0  0.0072195005874199445  0.0011107389665937213  0.9992090833751043  1.0000
