data_image0
_chemical_formula_structural       COGe12Pt8Ge12Pt8Ge12Pt8
_chemical_formula_sum              "C1 O1 Ge36 Pt24"
_cell_length_a       6.351712703704834
_cell_length_b       16.71903419494629
_cell_length_c       101.25514221191406
_cell_angle_alpha    90.0
_cell_angle_beta     90.0
_cell_angle_gamma    90.0

_space_group_name_H-M_alt    "P 1"
_space_group_IT_number       1

loop_
  _space_group_symop_operation_xyz
  'x, y, z'

loop_
  _atom_site_type_symbol
  _atom_site_label
  _atom_site_symmetry_multiplicity
  _atom_site_fract_x
  _atom_site_fract_y
  _atom_site_fract_z
  _atom_site_occupancy
  C   C1        1.0  0.00706320126366061  0.008295898598485509  0.00017105811464894436  1.0000
  O   O1        1.0  0.00706320126366061  0.008295898598485509  0.00028957085441262524  1.0000
  Ge  Ge1       1.0  0.00941469244094838  0.0042887292891841036  0.9991425637685155  1.0000
  Ge  Ge2       1.0  0.008413244307254972  0.007314009539176432  0.9991425637685155  1.0000
  Ge  Ge3       1.0  0.0005853078024498242  0.005711270336482808  0.9993140510148124  1.0000
  Ge  Ge4       1.0  0.005585307887492571  0.009288728879200245  0.9991425637685155  1.0000
  Ge  Ge5       1.0  0.004148881061265161  0.00387442812242851  0.9993140510148124  1.0000
  Ge  Ge6       1.0  0.0058511192554457575  0.006125571503238402  0.9991425637685155  1.0000
  Ge  Ge7       1.0  0.004414692135967497  0.0007112703565363663  0.9993140510148124  1.0000
  Ge  Ge8       1.0  0.0034132440022740878  0.007685989676506621  0.9993140510148124  1.0000
  Ge  Ge9       1.0  0.0015867560094559464  0.00268599008649048  0.9993140510148124  1.0000
  Ge  Ge10      1.0  0.00658675602118598  0.002314009726342976  0.9991425637685155  1.0000
  Ge  Ge11      1.0  0.0008511190237775859  0.00887442771244465  0.9993140510148124  1.0000
  Ge  Ge12      1.0  0.009148881072995194  0.0011255719132222603  0.9991425637685155  1.0000
  Pt  Pt1       1.0  0.002063201545181426  0.006704100617197544  0.9991425637685155  1.0000
  Pt  Pt2       1.0  0.0019569627738737724  0.009931902643678594  0.9991425637685155  1.0000
  Pt  Pt3       1.0  0.002936798466548608  0.0017041006929554305  0.9991425637685155  1.0000
  Pt  Pt4       1.0  0.006956962932229231  0.005068097017639089  0.9993140510148124  1.0000
  Pt  Pt5       1.0  0.0030430373844816867  0.0049319026080278236  0.9991425637685155  1.0000
  Pt  Pt6       1.0  0.00706320126366061  0.008295898598485509  0.9993140510148124  1.0000
  Pt  Pt7       1.0  0.007936798478278643  0.003295899008469368  0.9993140510148124  1.0000
  Pt  Pt8       1.0  0.00804303739621172  6.809739977078266e-05  0.9993140510148124  1.0000
  Ge  Ge13      1.0  0.00941469244094838  0.0042887292891841036  0.9994855382611093  1.0000
  Ge  Ge14      1.0  0.008413244307254972  0.007314009539176432  0.9994855382611093  1.0000
  Ge  Ge15      1.0  0.0005853078024498242  0.005711270336482808  0.9996570255074062  1.0000
  Ge  Ge16      1.0  0.005585307887492571  0.009288728879200245  0.9994855382611093  1.0000
  Ge  Ge17      1.0  0.004148881061265161  0.00387442812242851  0.9996570255074062  1.0000
  Ge  Ge18      1.0  0.0058511192554457575  0.006125571503238402  0.9994855382611093  1.0000
  Ge  Ge19      1.0  0.004414692135967497  0.0007112703565363663  0.9996570255074062  1.0000
  Ge  Ge20      1.0  0.0034132440022740878  0.007685989676506621  0.9996570255074062  1.0000
  Ge  Ge21      1.0  0.0015867560094559464  0.00268599008649048  0.9996570255074062  1.0000
  Ge  Ge22      1.0  0.00658675602118598  0.002314009726342976  0.9994855382611093  1.0000
  Ge  Ge23      1.0  0.0008511190237775859  0.00887442771244465  0.9996570255074062  1.0000
  Ge  Ge24      1.0  0.009148881072995194  0.0011255719132222603  0.9994855382611093  1.0000
  Pt  Pt9       1.0  0.002063201545181426  0.006704100617197544  0.9994855382611093  1.0000
  Pt  Pt10      1.0  0.0019569627738737724  0.009931902643678594  0.9994855382611093  1.0000
  Pt  Pt11      1.0  0.002936798466548608  0.0017041006929554305  0.9994855382611093  1.0000
  Pt  Pt12      1.0  0.006956962932229231  0.005068097017639089  0.9996570255074062  1.0000
  Pt  Pt13      1.0  0.0030430373844816867  0.0049319026080278236  0.9994855382611093  1.0000
  Pt  Pt14      1.0  0.00706320126366061  0.008295898598485509  0.9996570255074062  1.0000
  Pt  Pt15      1.0  0.007936798478278643  0.003295899008469368  0.9996570255074062  1.0000
  Pt  Pt16      1.0  0.00804303739621172  6.809739977078266e-05  0.9996570255074062  1.0000
  Ge  Ge25      1.0  0.00941469244094838  0.0042887292891841036  0.9998285127537031  1.0000
  Ge  Ge26      1.0  0.008413244307254972  0.007314009539176432  0.9998285127537031  1.0000
  Ge  Ge27      1.0  0.0005853078024498242  0.005711270336482808  0.0  1.0000
  Ge  Ge28      1.0  0.005585307887492571  0.009288728879200245  0.9998285127537031  1.0000
  Ge  Ge29      1.0  0.004148881061265161  0.00387442812242851  0.0  1.0000
  Ge  Ge30      1.0  0.0058511192554457575  0.006125571503238402  0.9998285127537031  1.0000
  Ge  Ge31      1.0  0.004414692135967497  0.0007112703565363663  0.0  1.0000
  Ge  Ge32      1.0  0.0034132440022740878  0.007685989676506621  0.0  1.0000
  Ge  Ge33      1.0  0.0015867560094559464  0.00268599008649048  0.0  1.0000
  Ge  Ge34      1.0  0.00658675602118598  0.002314009726342976  0.9998285127537031  1.0000
  Ge  Ge35      1.0  0.0008511190237775859  0.00887442771244465  0.0  1.0000
  Ge  Ge36      1.0  0.009148881072995194  0.0011255719132222603  0.9998285127537031  1.0000
  Pt  Pt17      1.0  0.002063201545181426  0.006704100617197544  0.9998285127537031  1.0000
  Pt  Pt18      1.0  0.0019569627738737724  0.009931902643678594  0.9998285127537031  1.0000
  Pt  Pt19      1.0  0.002936798466548608  0.0017041006929554305  0.9998285127537031  1.0000
  Pt  Pt20      1.0  0.006956962932229231  0.005068097017639089  0.0  1.0000
  Pt  Pt21      1.0  0.0030430373844816867  0.0049319026080278236  0.9998285127537031  1.0000
  Pt  Pt22      1.0  0.00706320126366061  0.008295898598485509  0.0  1.0000
  Pt  Pt23      1.0  0.007936798478278643  0.003295899008469368  0.0  1.0000
  Pt  Pt24      1.0  0.00804303739621172  6.809739977078266e-05  0.0  1.0000
