data_image0
_chemical_formula_structural       COAg8Au24
_chemical_formula_sum              "C1 O1 Ag8 Au24"
_cell_length_a       10.230254173278809
_cell_length_b       7.671714052110357
_cell_length_c       100.68685913085938
_cell_angle_alpha    100.68952394741669
_cell_angle_beta     90.0
_cell_angle_gamma    90.0

_space_group_name_H-M_alt    "P 1"
_space_group_IT_number       1

loop_
  _space_group_symop_operation_xyz
  'x, y, z'

loop_
  _atom_site_type_symbol
  _atom_site_label
  _atom_site_symmetry_multiplicity
  _atom_site_fract_x
  _atom_site_fract_y
  _atom_site_fract_z
  _atom_site_occupancy
  C   C1        1.0  0.009392905128356433  0.0035311918290979417  0.00017549540371451005  1.0000
  O   O1        1.0  0.009392905128356433  0.0035311918290979417  0.00029467644499075384  1.0000
  Ag  Ag1       1.0  0.003104437054118228  0.0012499999851751074  0.9993835732209174  1.0000
  Ag  Ag2       1.0  0.0030885989553284133  0.0062461967232100984  0.9997629398971671  1.0000
  Ag  Ag3       1.0  0.008104436791934223  0.008750000513929612  0.99957405782947  1.0000
  Ag  Ag4       1.0  0.008121176512386877  0.003774070515997348  0.9999674702388406  1.0000
  Ag  Ag5       1.0  0.0014377702017378908  0.006250000296497853  0.9993835733022748  1.0000
  Ag  Ag6       1.0  0.0014536077543110275  0.001246198388539705  0.9997629401397359  1.0000
  Ag  Ag7       1.0  0.006437770212662224  0.0037500000790660942  0.9995740577463665  1.0000
  Ag  Ag8       1.0  0.006421031948787377  0.008774069221290058  0.9999674697055196  1.0000
  Au  Au1       1.0  0.003935111725111093  0.004996012538743967  0.9994791193871158  1.0000
  Au  Au2       1.0  0.003902407547743824  2.9452701067987834e-05  0.9998647071203082  1.0000
  Au  Au3       1.0  0.008935112191215993  0.0024960125683937528  0.9996696038346996  1.0000
  Au  Au4       1.0  0.008977429417968287  0.007456377417382573  3.47159482139476e-05  1.0000
  Au  Au5       1.0  0.003935111725111093  0.002503987619388221  0.9996689964016076  1.0000
  Au  Au6       1.0  0.00387757362441491  0.007435973423482175  3.3397533633295496e-05  1.0000
  Au  Au7       1.0  0.008909283425244559  5.215780206347325e-05  0.9998656223587745  1.0000
  Au  Au8       1.0  0.008935112191215993  0.005003987836819979  0.9994785116615256  1.0000
  Au  Au9       1.0  0.0014430870748797053  0.0037500000790660942  0.9995740577463665  1.0000
  Au  Au10      1.0  0.0014313645366849724  0.008812131638974346  0.9999633309949779  1.0000
  Au  Au11      1.0  0.006468606693135832  0.0012430146193049799  0.9997661098931034  1.0000
  Au  Au12      1.0  0.006443087449948491  0.006250000296497853  0.9993835733022748  1.0000
  Au  Au13      1.0  0.0006646329031523047  0.0024359705178032174  3.339741561001691e-05  1.0000
  Au  Au14      1.0  0.0006070953031547424  0.00750398756008865  0.9996689961817368  1.0000
  Au  Au15      1.0  0.005607095541669358  3.9876000560202305e-06  0.9994785118772122  1.0000
  Au  Au16      1.0  0.005632924671785244  0.005052158360467763  0.9998656224436239  1.0000
  Au  Au17      1.0  0.0006397995260400688  0.0050294530490668996  0.9998647077941643  1.0000
  Au  Au18      1.0  0.0006070953031547424  0.009996012973607485  0.9994791194702191  1.0000
  Au  Au19      1.0  0.005564777950772611  0.002456375500029792  3.4715844158638284e-05  1.0000
  Au  Au20      1.0  0.005607095541669358  0.007496012756175726  0.9996696039143109  1.0000
  Au  Au21      1.0  0.003110842355026694  0.0038121316982739177  0.9999633309188585  1.0000
  Au  Au22      1.0  0.0030991201809764135  0.008750000513929612  0.99957405782947  1.0000
  Au  Au23      1.0  0.00809912028293686  0.0012499999851751074  0.9993835732209174  1.0000
  Au  Au24      1.0  0.008073601768038422  0.0062430143129238655  0.9997661102617209  1.0000
