data_image0
_chemical_formula_structural       COAl48Re8
_chemical_formula_sum              "C1 O1 Al48 Re8"
_cell_length_a       7.6768012046813965
_cell_length_b       11.27846979002145
_cell_length_c       103.83541107177734
_cell_angle_alpha    72.35354563653833
_cell_angle_beta     90.0
_cell_angle_gamma    90.0

_space_group_name_H-M_alt    "P 1"
_space_group_IT_number       1

loop_
  _space_group_symop_operation_xyz
  'x, y, z'

loop_
  _atom_site_type_symbol
  _atom_site_label
  _atom_site_symmetry_multiplicity
  _atom_site_fract_x
  _atom_site_fract_y
  _atom_site_fract_z
  _atom_site_occupancy
  C   C1        1.0  0.004999997010761693  0.002196390281241174  0.9998908566565091  1.0000
  O   O1        1.0  0.004999997010761693  0.002196390281241174  6.423827575217862e-06  1.0000
  Al  Al1       1.0  0.00824480548801171  0.0075767443870356005  0.9989348106357178  1.0000
  Al  Al2       1.0  0.00824480548801171  0.002576744789104058  0.9994779043086812  1.0000
  Al  Al3       1.0  0.0017551944780196727  7.674475184340346e-05  0.9992063574610667  1.0000
  Al  Al4       1.0  0.0017769485870111213  0.0051535977207587645  0.9997375782849345  1.0000
  Al  Al5       1.0  0.0017551944780196727  0.0075767443870356005  0.9989348106357178  1.0000
  Al  Al6       1.0  0.0017551944780196727  0.002576744789104058  0.9994779043086812  1.0000
  Al  Al7       1.0  0.00824480548801171  7.674475184340346e-05  0.9992063574610667  1.0000
  Al  Al8       1.0  0.008223051015070792  0.005153598760590982  0.999737578250696  1.0000
  Al  Al9       1.0  5.000000138141452e-11  0.002423255155438224  0.9990605717439688  1.0000
  Al  Al10      1.0  0.009999999844714894  0.007358548767343515  0.9996104861390035  1.0000
  Al  Al11      1.0  5.000000138141452e-11  0.00623456639429089  0.9991896858477107  1.0000
  Al  Al12      1.0  1.449999982212811e-09  0.0012269652762366694  0.9997361545481591  1.0000
  Al  Al13      1.0  5.000000138141452e-11  0.003918922781848769  0.9992230293837032  1.0000
  Al  Al14      1.0  2.0499998830933648e-09  0.008702002980830174  0.9997887931044438  1.0000
  Al  Al15      1.0  5.000000138141452e-11  0.007730234020701435  0.9993521432004301  1.0000
  Al  Al16      1.0  5.000000138141452e-11  0.0027302342494645226  0.9988090494952148  1.0000
  Al  Al17      1.0  0.0017999340583734732  0.000283362143074957  0.9989123680985228  1.0000
  Al  Al18      1.0  0.0017999340583734732  0.005283362195933095  0.9994554617944652  1.0000
  Al  Al19      1.0  0.008206100675123743  0.009818521438223607  0.9994964581660761  1.0000
  Al  Al20      1.0  0.00820006590765791  0.004870127326817303  0.9989572531385209  1.0000
  Al  Al21      1.0  0.00820006590765791  0.000283362143074957  0.9989123680985228  1.0000
  Al  Al22      1.0  0.00820006590765791  0.005283362195933095  0.9994554617944652  1.0000
  Al  Al23      1.0  0.0017938990482746615  0.009818522824666564  0.9994964581204248  1.0000
  Al  Al24      1.0  0.0017999340583734732  0.004870127326817303  0.9989572531385209  1.0000
  Al  Al25      1.0  0.0031571551297130663  9.34089513232744e-05  0.9997407192228168  1.0000
  Al  Al26      1.0  0.003244805565654264  0.005076744761375199  0.9992063573229856  1.0000
  Al  Al27      1.0  0.00675519427906063  0.002576744789104058  0.9989348104732311  1.0000
  Al  Al28      1.0  0.00675519427906063  0.0075767443870356005  0.9994779041841528  1.0000
  Al  Al29      1.0  0.00684284350183693  9.340885383900399e-05  0.9997407192260267  1.0000
  Al  Al30      1.0  0.00675519427906063  0.005076744761375199  0.9992063573229856  1.0000
  Al  Al31      1.0  0.003244805565654264  0.002576744789104058  0.9989348104732311  1.0000
  Al  Al32      1.0  0.003244805565654264  0.0075767443870356005  0.9994779041841528  1.0000
  Al  Al33      1.0  0.004999999922357447  0.009923255418862386  0.9993321187333843  1.0000
  Al  Al34      1.0  0.004999999922357447  0.004923255127709364  0.9987890250452882  1.0000
  Al  Al35      1.0  0.004999999922357447  0.008734566366562032  0.9989181388620151  1.0000
  Al  Al36      1.0  0.004999999922357447  0.003734566768630488  0.9994612322479635  1.0000
  Al  Al37      1.0  0.00499999846655957  0.0014055333233727574  0.9995003637602924  1.0000
  Al  Al38      1.0  0.004999999922357447  0.00641892240750917  0.9989514824094204  1.0000
  Al  Al39      1.0  0.004999999922357447  0.0002302342555302104  0.9990805961946086  1.0000
  Al  Al40      1.0  0.005000001863421283  0.005246055095623747  0.9996382472940277  1.0000
  Al  Al41      1.0  0.0067999338594144304  0.007783361821593496  0.9991839148201824  1.0000
  Al  Al42      1.0  0.006843132235082521  0.0026849178414977597  0.9997158128253933  1.0000
  Al  Al43      1.0  0.0032000659853004634  0.002370127354546162  0.9992287998372015  1.0000
  Al  Al44      1.0  0.0029993345082049237  0.007365169032463351  0.9997574873410309  1.0000
  Al  Al45      1.0  0.0032000659853004634  0.007783361821593496  0.9991839148201824  1.0000
  Al  Al46      1.0  0.0031568620290738443  0.0026849188813299774  0.9997158127911548  1.0000
  Al  Al47      1.0  0.0067999338594144304  0.002370127354546162  0.9992287998372015  1.0000
  Al  Al48      1.0  0.007000666064408909  0.007365167646020394  0.9997574873866822  1.0000
  Re  Re1       1.0  5.000000138141452e-11  0.008605775520954278  0.9990945856943181  1.0000
  Re  Re2       1.0  0.009999998874182976  0.0035940889021164176  0.9996427686485652  1.0000
  Re  Re3       1.0  5.000000138141452e-11  0.0015477140017961203  0.9993181295256831  1.0000
  Re  Re4       1.0  5.000000138141452e-11  0.006547713946338402  0.9987750358413068  1.0000
  Re  Re5       1.0  0.004999999922357447  0.00110577551748817  0.9988230386963429  1.0000
  Re  Re6       1.0  0.004999999922357447  0.006105775548683137  0.9993661321059837  1.0000
  Re  Re7       1.0  0.004999996525495734  0.009033357301789457  0.9995933543430303  1.0000
  Re  Re8       1.0  0.004999999922357447  0.004047713974067261  0.9990465825399875  1.0000
