data_image0
_chemical_formula_structural       Si8W4H
_chemical_formula_sum              "Si8 W4 H1"
_cell_length_a       4.5573063203404525
_cell_length_b       4.5803093910217285
_cell_length_c       101.68028259277344
_cell_angle_alpha    90.0
_cell_angle_beta     89.66633329124902
_cell_angle_gamma    90.0

_space_group_name_H-M_alt    "P 1"
_space_group_IT_number       1

loop_
  _space_group_symop_operation_xyz
  'x, y, z'

loop_
  _atom_site_type_symbol
  _atom_site_label
  _atom_site_symmetry_multiplicity
  _atom_site_fract_x
  _atom_site_fract_y
  _atom_site_fract_z
  _atom_site_occupancy
  Si  Si1       1.0  0.003756733747099831  0.0050000002439981655  0.9996582894018162  1.0000
  Si  Si2       1.0  0.006268398592234422  2.0000000323206228e-10  0.9998468244131856  1.0000
  Si  Si3       1.0  0.0012567338615423218  1.0000000161603114e-10  0.999463559643256  1.0000
  Si  Si4       1.0  0.008558203181485544  0.0050000006506617746  5.106087046700828e-05  1.0000
  Si  Si5       1.0  0.008804609307985748  0.0050000002439981655  0.9997868662939322  1.0000
  Si  Si6       1.0  0.0011953901320634953  0.010000000487996331  0.9999874851332682  1.0000
  Si  Si7       1.0  0.006304609422428238  1.0000000161603114e-10  0.9995921365353719  1.0000
  Si  Si8       1.0  0.0038046095368707285  0.0050000002439981655  0.9993974067768117  1.0000
  W   W1        1.0  0.00878067202618507  0.0050000002439981655  0.9995278480532176  1.0000
  W   W2        1.0  0.0012806718586085657  1.0000000161603114e-10  0.9997225775906856  1.0000
  W   W3        1.0  0.006152540284541438  3.000000048480934e-10  8.694323054943971e-05  1.0000
  W   W4        1.0  0.0037608475459135426  0.0050000006506617746  0.9999174215561689  1.0000
  H   H1        1.0  0.001282728655834626  0.0050000006506617746  0.9999996651933593  1.0000
