data_image0
_chemical_formula_structural       HV12Co12Si12
_chemical_formula_sum              "H1 V12 Co12 Si12"
_cell_length_a       6.972233917595083
_cell_length_b       7.73629062966727
_cell_length_c       30.86322593688965
_cell_angle_alpha    117.01913586756103
_cell_angle_beta     109.83618414185895
_cell_angle_gamma    76.34708153777272

_space_group_name_H-M_alt    "P 1"
_space_group_IT_number       1

loop_
  _space_group_symop_operation_xyz
  'x, y, z'

loop_
  _atom_site_type_symbol
  _atom_site_label
  _atom_site_symmetry_multiplicity
  _atom_site_fract_x
  _atom_site_fract_y
  _atom_site_fract_z
  _atom_site_occupancy
  H   H1        1.0  0.009198326682798984  0.0007639106988751005  0.001448217260153891  1.0000
  V   V1        1.0  0.005058999883551705  0.007103531307469665  0.9984618862114214  1.0000
  V   V2        1.0  0.008392332956184507  0.0004368645982578199  0.9995186122100351  1.0000
  V   V3        1.0  0.0016027913581399967  0.0036891677521734057  0.000542964770155161  1.0000
  V   V4        1.0  0.0053923999936185876  0.006936831150686735  0.9999941284179473  1.0000
  V   V5        1.0  0.008486856485631526  0.009730169613310252  0.0009563219289342726  1.0000
  V   V6        1.0  0.0020590662739447007  0.0036034979658089187  0.9989374023817933  1.0000
  V   V7        1.0  0.007713076582283382  0.006527614785689789  0.0008800611501088038  1.0000
  V   V8        1.0  0.0012458473843448446  0.009729835045267317  0.998838138158115  1.0000
  V   V9        1.0  0.004579180990126905  0.0030631686755116837  0.9998948642362537  1.0000
  V   V10       1.0  0.008245914223977462  0.00622980197517154  0.9993136545097236  1.0000
  V   V11       1.0  0.0014794310318329883  0.009545909522442615  0.00033145752067255467  1.0000
  V   V12       1.0  0.004912581072308919  0.002896468790293724  0.9982569282757051  1.0000
  Co  Co1       1.0  0.006974365502525325  0.009951045352201603  0.9985370578057546  1.0000
  Co  Co2       1.0  0.00030769840294996107  0.0032843784393160307  0.9995937836520992  1.0000
  Co  Co3       1.0  0.003605833979524248  0.006651073109183056  0.0006909959271752423  1.0000
  Co  Co4       1.0  0.004901475541708015  0.009096824704212303  0.9994650039124525  1.0000
  Co  Co5       1.0  0.00844247151500738  0.0024125215474854766  0.0005446247178503873  1.0000
  Co  Co6       1.0  0.0015681419361505964  0.005763491790899457  0.9984082776745641  1.0000
  Co  Co7       1.0  0.00840343859370602  0.004236508306863932  0.998310536779906  1.0000
  Co  Co8       1.0  0.0017367718362554167  0.007569841491741748  0.9993672629050161  1.0000
  Co  Co9       1.0  0.005015479370447632  0.0010026998815507466  0.00045982031187997616  1.0000
  Co  Co10      1.0  0.0063305491451243175  0.0033822882020045717  0.9992384829877189  1.0000
  Co  Co11      1.0  0.009692301328038234  0.006748822376974377  0.00030360305547346263  1.0000
  Co  Co12      1.0  0.0029972154476711854  4.895480072341996e-05  0.9981817569286257  1.0000
  Si  Si1       1.0  0.008852927242940518  0.007435356544210012  0.9987390382786009  1.0000
  Si  Si2       1.0  0.0021862603925117416  0.000768689970780652  0.9997957644241059  1.0000
  Si  Si3       1.0  0.005692667683869743  0.004136938467514294  0.0008593335326009248  1.0000
  Si  Si4       1.0  0.004678160587252768  0.0007848897717135354  0.9990006520104078  1.0000
  Si  Si5       1.0  0.008011494015952764  0.004118223024482594  5.737803198739041e-05  1.0000
  Si  Si6       1.0  0.0013151314164414408  0.007231142945612827  0.0011343118837616412  1.0000
  Si  Si7       1.0  0.004451986864588648  0.005897976738431193  0.9990365024425442  1.0000
  Si  Si8       1.0  0.007785320556377666  0.00923131019487398  9.322874889098363e-05  1.0000
  Si  Si9       1.0  0.0011186534568023015  0.0025646432819884067  0.9979797763993746  1.0000
  Si  Si10      1.0  0.00862675372524333  0.0025484436168380083  0.99877488873851  1.0000
  Si  Si11      1.0  0.001960086683790055  0.005881776801715824  0.9998316150832555  1.0000
  Si  Si12      1.0  0.005064051199473755  0.009323878003039302  0.000909749896001784  1.0000
