data_image0
_chemical_formula_structural       COPtSe2PtSe2PtSe2PtSe2PtSe2PtSe2PtSe2PtSe2
_chemical_formula_sum              "C1 O1 Pt8 Se16"
_cell_length_a       7.565451145172119
_cell_length_b       7.565451013056479
_cell_length_c       106.91962432861328
_cell_angle_alpha    90.0
_cell_angle_beta     90.0
_cell_angle_gamma    120.00000057767213

_space_group_name_H-M_alt    "P 1"
_space_group_IT_number       1

loop_
  _space_group_symop_operation_xyz
  'x, y, z'

loop_
  _atom_site_type_symbol
  _atom_site_label
  _atom_site_symmetry_multiplicity
  _atom_site_fract_x
  _atom_site_fract_y
  _atom_site_fract_z
  _atom_site_occupancy
  C   C1        1.0  0.005000000205931849  0.0033333333447050145  0.00011736782252304793  1.0000
  O   O1        1.0  0.005000000205931849  0.0033333333447050145  0.00022960188988016344  1.0000
  Pt  Pt1       1.0  0.0008333333102927828  1.0000000309568489e-10  0.9994412736183287  1.0000
  Se  Se1       1.0  0.0041666664484203845  0.0016666668144985186  0.9993183561668908  1.0000
  Se  Se2       1.0  0.0024999999326452884  0.0033333333447050145  0.9989886873041669  1.0000
  Pt  Pt2       1.0  0.0008333339192906533  0.010000000318407067  0.0  1.0000
  Se  Se3       1.0  0.004166666694624493  0.0016666668144985186  0.9999107449084209  1.0000
  Se  Se4       1.0  0.0024999999326452884  0.0033333333447050145  0.9995641916272381  1.0000
  Pt  Pt3       1.0  0.000833333312812096  0.005000000159203533  0.9994412736183287  1.0000
  Se  Se5       1.0  0.004166666543446769  0.006666666689410029  0.9993183561668908  1.0000
  Se  Se6       1.0  0.0024999999661206454  0.008333333219616525  0.9989886873041669  1.0000
  Pt  Pt4       1.0  0.0008333336821182577  0.005000000159203533  0.0  1.0000
  Se  Se7       1.0  0.004166666604997796  0.006666666689410029  0.9999107449084209  1.0000
  Se  Se8       1.0  0.0024999999661206454  0.008333333219616525  0.9995641916272381  1.0000
  Pt  Pt5       1.0  0.005833333179804605  1.0000000309568489e-10  0.9994412736183287  1.0000
  Se  Se9       1.0  0.009166666871891448  0.0016666668144985186  0.9993183561668908  1.0000
  Se  Se10      1.0  0.007499999802157112  0.0033333333447050145  0.9989886873041669  1.0000
  Pt  Pt6       1.0  0.005833333665700422  0.010000000318407067  0.0  1.0000
  Se  Se11      1.0  0.009166666871891448  0.0016666668144985186  0.9999107449084209  1.0000
  Se  Se12      1.0  0.007499999802157112  0.0033333333447050145  0.9995641916272381  1.0000
  Pt  Pt7       1.0  0.005833333366976999  0.005000000159203533  0.9994412736183287  1.0000
  Se  Se13      1.0  0.00916666647450962  0.006666666689410029  0.9993183561668908  1.0000
  Se  Se14      1.0  0.007499999897183495  0.008333333219616525  0.9989886873041669  1.0000
  Pt  Pt8       1.0  0.005833333613181107  0.005000000159203533  0.0  1.0000
  Se  Se15      1.0  0.00916666647450962  0.006666666689410029  0.9999107449084209  1.0000
  Se  Se16      1.0  0.007499999897183495  0.008333333219616525  0.9995641916272381  1.0000
