data_image0
_chemical_formula_structural       HTi6Al6Au6Ti6Al6Au6
_chemical_formula_sum              "H1 Ti12 Al12 Au12"
_cell_length_a       5.794891357421875
_cell_length_b       11.856563072115343
_cell_length_c       101.36951446533203
_cell_angle_alpha    79.10660567428586
_cell_angle_beta     90.0
_cell_angle_gamma    90.0

_space_group_name_H-M_alt    "P 1"
_space_group_IT_number       1

loop_
  _space_group_symop_operation_xyz
  'x, y, z'

loop_
  _atom_site_type_symbol
  _atom_site_label
  _atom_site_symmetry_multiplicity
  _atom_site_fract_x
  _atom_site_fract_y
  _atom_site_fract_z
  _atom_site_occupancy
  H   H1        1.0  0.0025226046367584735  0.006197703486633881  0.9999647936660272  1.0000
  Ti  Ti1       1.0  2.2487899231514067e-05  0.007222221895149929  0.9993807293977912  1.0000
  Ti  Ti2       1.0  2.2487899231514067e-05  0.0038888888604478203  0.9992333686773539  1.0000
  Ti  Ti3       1.0  2.2487899231514067e-05  0.0005555555457789381  0.9995280899164561  1.0000
  Ti  Ti4       1.0  0.005022487790950177  0.007222221895149929  0.9993807293977912  1.0000
  Ti  Ti5       1.0  0.005022487790950177  0.0038888888604478203  0.9992333686773539  1.0000
  Ti  Ti6       1.0  0.005022487790950177  0.0005555555457789381  0.9995280899164561  1.0000
  Al  Al1       1.0  0.007522487623807185  0.006111110883582559  0.9991842485065284  1.0000
  Al  Al2       1.0  0.007522487623807185  0.0027777778488804502  0.9994789697394422  1.0000
  Al  Al3       1.0  0.007522487623807185  0.00944444455820872  0.9993316092128208  1.0000
  Al  Al4       1.0  0.0025224877973787536  0.008333333546641352  0.999135128321558  1.0000
  Al  Al5       1.0  0.0025224877973787536  0.00499999987201519  0.9994298495686167  1.0000
  Al  Al6       1.0  0.0025224877973787536  0.0016666666773320676  0.9992824888517157  1.0000
  Au  Au1       1.0  0.0025224877973787536  0.006111110883582559  0.9991842485065284  1.0000
  Au  Au2       1.0  0.0025224877973787536  0.0027777778488804502  0.9994789697394422  1.0000
  Au  Au3       1.0  0.0025224877973787536  0.00944444455820872  0.9993316092128208  1.0000
  Au  Au4       1.0  0.007522487623807185  0.008333333546641352  0.999135128321558  1.0000
  Au  Au5       1.0  0.007522487623807185  0.00499999987201519  0.9994298495686167  1.0000
  Au  Au6       1.0  0.007522487623807185  0.0016666666773320676  0.9992824888517157  1.0000
  Ti  Ti7       1.0  8.289039816446035e-05  0.00718410929841389  0.9998161945057942  1.0000
  Ti  Ti8       1.0  4.149559811831551e-05  0.0038836555615441074  0.9996879912046861  1.0000
  Ti  Ti9       1.0  0.009977511527620704  0.0006904672542415191  0.9999455762951143  1.0000
  Ti  Ti10      1.0  0.004961978170837294  0.007184102259249309  0.9998161881934567  1.0000
  Ti  Ti11      1.0  0.005003493275667733  0.0038835749311134557  0.9996879894589848  1.0000
  Ti  Ti12      1.0  0.0050673386841787816  0.0006905869200393907  0.999945571298037  1.0000
  Al  Al7       1.0  0.007522487623807185  0.006111110883582559  0.9996263298718858  1.0000
  Al  Al8       1.0  0.007522560909580435  0.0027542699188392006  0.9999380039763196  1.0000
  Al  Al9       1.0  0.007522321766530884  0.009336506008528499  0.9997904734882851  1.0000
  Al  Al10      1.0  0.0025224877973787536  0.008333333546641352  0.9995772096869153  1.0000
  Al  Al11      1.0  0.002522945672747147  0.005068313684422631  0.9998879695946741  1.0000
  Al  Al12      1.0  0.002522454529494844  0.0016409332514162288  0.9997191362021691  1.0000
  Au  Au7       1.0  0.0025224877973787536  0.006111110883582559  0.9996263298718858  1.0000
  Au  Au8       1.0  0.002522489565237319  0.002782437135908811  0.9999264770211381  1.0000
  Au  Au9       1.0  0.002522515600972552  0.009298049132652059  0.9997971617324207  1.0000
  Au  Au10      1.0  0.007522487623807185  0.008333333546641352  0.9995772096869153  1.0000
  Au  Au11      1.0  0.007522364837994109  0.00504235548518325  0.9998779741884217  1.0000
  Au  Au12      1.0  0.0075223500522679275  0.0016758843033694614  0.999718016725026  1.0000
