data_image0
_chemical_formula_structural       COCa9Ag9As9
_chemical_formula_sum              "C1 O1 Ca9 Ag9 As9"
_cell_length_a       11.410045316953855
_cell_length_b       7.351300068736804
_cell_length_c       104.19438171386719
_cell_angle_alpha    64.53426658520206
_cell_angle_beta     80.57793270684944
_cell_angle_gamma    71.20751119876051

_space_group_name_H-M_alt    "P 1"
_space_group_IT_number       1

loop_
  _space_group_symop_operation_xyz
  'x, y, z'

loop_
  _atom_site_type_symbol
  _atom_site_label
  _atom_site_symmetry_multiplicity
  _atom_site_fract_x
  _atom_site_fract_y
  _atom_site_fract_z
  _atom_site_occupancy
  C   C1        1.0  0.001977925365468015  0.009459235137656756  0.9998875833534864  1.0000
  O   O1        1.0  0.001977925365468015  0.009459235137656756  2.752372359246603e-06  1.0000
  Ca  Ca1       1.0  0.0020252116555473402  0.00055815971007394  0.9997033819866475  1.0000
  Ca  Ca2       1.0  0.005543942553750674  0.000605265955334103  0.9994244348602084  1.0000
  Ca  Ca3       1.0  0.00878780565303656  0.0005407647128254306  0.9991603372895339  1.0000
  Ca  Ca4       1.0  0.000680386439747053  0.00876480906247225  0.9994927378532155  1.0000
  Ca  Ca5       1.0  0.004079291026896513  0.00879185038928809  0.9992081669754811  1.0000
  Ca  Ca6       1.0  0.007412624792663638  0.008791850406505356  0.9989346846850389  1.0000
  Ca  Ca7       1.0  0.0001629863482278234  0.004666307953741773  0.9993859898539376  1.0000
  Ca  Ca8       1.0  0.003496319671929154  0.004666307621587709  0.9991125075820187  1.0000
  Ca  Ca9       1.0  0.007138171716153728  0.004450000074036145  0.9996533982021315  1.0000
  Ag  Ag1       1.0  0.0004544720580577807  0.007172974875575822  0.9990235962766942  1.0000
  Ag  Ag2       1.0  0.003605484132337018  0.00721227613735759  0.9995590189142317  1.0000
  Ag  Ag3       1.0  0.007121139115179959  0.007172975137430589  0.9992970786697701  1.0000
  Ag  Ag4       1.0  0.007996564293284533  0.0020384281623756074  0.9994474483928021  1.0000
  Ag  Ag5       1.0  0.0012900277750292164  0.0021596406183256264  0.9991607021031627  1.0000
  Ag  Ag6       1.0  0.00440691413825757  0.002599813753244372  0.9996898007638374  1.0000
  Ag  Ag7       1.0  0.0098370140110315  0.0046078864327403326  0.9996838667741422  1.0000
  Ag  Ag8       1.0  0.0028151933218634965  0.004675603178161357  0.9994412496201592  1.0000
  Ag  Ag9       1.0  0.006285583182566673  0.004666307511820905  0.9991599724777639  1.0000
  As  As1       1.0  0.002114967659325612  0.004572304834867586  0.9997217781758848  1.0000
  As  As2       1.0  0.005524400916714003  0.0046057144310761465  0.9994504625193722  1.0000
  As  As3       1.0  0.00878780565303656  0.004666307889143911  0.9991603370250972  1.0000
  As  As4       1.0  0.009425534166877253  0.0012666649098009408  0.9996699399753269  1.0000
  As  As5       1.0  0.0026766943241751  0.0013329741812304237  0.9993882390336989  1.0000
  As  As6       1.0  0.006010027399888302  0.0013329742485979378  0.9991147570401321  1.0000
  As  As7       1.0  0.008201999556554788  0.008001747106268171  0.9994859972575139  1.0000
  As  As8       1.0  0.001565583126423885  0.007999640949300465  0.9992059174878487  1.0000
  As  As9       1.0  0.004898916719677529  0.007999641049216  0.9989324354840166  1.0000
