data_image0
_chemical_formula_structural       HCo12Fe6Ga6
_chemical_formula_sum              "H1 Co12 Fe6 Ga6"
_cell_length_a       6.972611414976427
_cell_length_b       5.693113327026367
_cell_length_c       100.65835571289062
_cell_angle_alpha    90.0
_cell_angle_beta     85.65224700309102
_cell_angle_gamma    114.09484231159118

_space_group_name_H-M_alt    "P 1"
_space_group_IT_number       1

loop_
  _space_group_symop_operation_xyz
  'x, y, z'

loop_
  _atom_site_type_symbol
  _atom_site_label
  _atom_site_symmetry_multiplicity
  _atom_site_fract_x
  _atom_site_fract_y
  _atom_site_fract_z
  _atom_site_occupancy
  H   H1        1.0  0.0037315689766916063  0.007074117603562378  0.00010220906920613717  1.0000
  Co  Co1       1.0  0.0022916666803702713  0.0088541666647938  0.999725397754543  1.0000
  Co  Co2       1.0  0.003958333290264861  0.004687499878132055  0.9999792134052091  1.0000
  Co  Co3       1.0  0.0006249999970635133  0.0030208332315313806  0.9994715826964105  1.0000
  Co  Co4       1.0  0.0022916666803702713  0.00385416657318476  0.999725397754543  1.0000
  Co  Co5       1.0  0.003958333290264861  0.009687499969741095  0.9999792134052091  1.0000
  Co  Co6       1.0  0.0006249999970635133  0.00802083332314042  0.9994715826964105  1.0000
  Co  Co7       1.0  0.00812499974158917  0.0017708331757727391  0.9998523058565048  1.0000
  Co  Co8       1.0  0.004791666521799989  0.00010416672946571871  0.9993446751473206  1.0000
  Co  Co9       1.0  0.006458333278518915  0.0059374998722590815  0.9995984902050676  1.0000
  Co  Co10      1.0  0.00812499974158917  0.006770833103794209  0.9998523058565048  1.0000
  Co  Co11      1.0  0.004791666521799989  0.0051041664938996185  0.9993446751473206  1.0000
  Co  Co12      1.0  0.006458333278518915  0.0009374999442376118  0.9995984902050676  1.0000
  Fe  Fe1       1.0  0.003541666674497298  0.006979166452465223  0.9995350364505463  1.0000
  Fe  Fe2       1.0  0.005208333137567553  0.002812499858221112  0.9997888518059094  1.0000
  Fe  Fe3       1.0  0.001874999917778372  0.0011458332483265214  0.9992812213927993  1.0000
  Fe  Fe4       1.0  0.009374999882540532  0.00989583305648684  0.999661944255663  1.0000
  Fe  Fe5       1.0  0.0010416666862432449  0.005729166458338196  0.9999157593546137  1.0000
  Fe  Fe6       1.0  0.0077083334194702775  0.004062499999172475  0.9994081289003  1.0000
  Ga  Ga1       1.0  0.009374999882540532  0.004895833230707602  0.999661944255663  1.0000
  Ga  Ga2       1.0  0.0010416666862432449  0.0007291666939042966  0.9999157593546137  1.0000
  Ga  Ga3       1.0  0.0077083334194702775  0.009062499824951713  0.9994081289003  1.0000
  Ga  Ga4       1.0  0.003541666674497298  0.001979166688031323  0.9995350364505463  1.0000
  Ga  Ga5       1.0  0.005208333137567553  0.00781249968400035  0.9997888518059094  1.0000
  Ga  Ga6       1.0  0.001874999917778372  0.0061458330741057604  0.9992812213927993  1.0000
