data_image0
_chemical_formula_structural       COV8Ir8V8Ir8V8Ir8
_chemical_formula_sum              "C1 O1 V24 Ir24"
_cell_length_a       11.977918882281607
_cell_length_b       6.777936935424805
_cell_length_c       101.07386779785156
_cell_angle_alpha    90.0
_cell_angle_beta     103.64126562669432
_cell_angle_gamma    90.0

_space_group_name_H-M_alt    "P 1"
_space_group_IT_number       1

loop_
  _space_group_symop_operation_xyz
  'x, y, z'

loop_
  _atom_site_type_symbol
  _atom_site_label
  _atom_site_symmetry_multiplicity
  _atom_site_fract_x
  _atom_site_fract_y
  _atom_site_fract_z
  _atom_site_occupancy
  C   C1        1.0  0.00028985953106482423  0.003582061262554554  0.0001746316692489645  1.0000
  O   O1        1.0  0.00028985953106482423  0.003582061262554554  0.0002933569597730711  1.0000
  V   V1        1.0  0.0036889238754934774  0.001082061182859641  0.9998236122285903  1.0000
  V   V2        1.0  0.0086889234914442  0.001082061182859641  0.9999633564143944  1.0000
  V   V3        1.0  0.005731356814345049  0.001082061182859641  0.9998806958585947  1.0000
  V   V4        1.0  0.000731357038373794  0.001082061182859641  2.04405803419651e-05  1.0000
  V   V5        1.0  0.0061889233634277755  0.006082061273546956  0.9998934843125475  1.0000
  V   V6        1.0  0.0011889238274873182  0.006082061273546956  3.322904100337702e-05  1.0000
  V   V7        1.0  0.0032313570063696876  0.006082061273546956  0.9998108237656927  1.0000
  V   V8        1.0  0.008231356942361474  0.006082061273546956  0.9999505679604416  1.0000
  Ir  Ir1       1.0  0.004710140344919263  0.003917939045232696  0.9999918984996043  1.0000
  Ir  Ir2       1.0  0.009710139960869987  0.003917939045232696  0.9998521543630985  1.0000
  Ir  Ir3       1.0  0.004710140344919263  0.00824618377667126  0.9999918984996043  1.0000
  Ir  Ir4       1.0  0.009710139960869987  0.00824618377667126  0.9998521543630985  1.0000
  Ir  Ir5       1.0  0.007210140472935688  0.008917939342027543  6.177060145119413e-05  1.0000
  Ir  Ir6       1.0  0.00221014037692337  0.008917939342027543  0.9999220264022299  1.0000
  Ir  Ir7       1.0  0.007210140472935688  0.003246183479876412  6.177060145119413e-05  1.0000
  Ir  Ir8       1.0  0.00221014037692337  0.003246183479876412  0.9999220264022299  1.0000
  V   V9        1.0  0.0036889238754934774  0.001082061182859641  0.9995441242011371  1.0000
  V   V10       1.0  0.0086889234914442  0.001082061182859641  0.9996838683869412  1.0000
  V   V11       1.0  0.005731356814345049  0.001082061182859641  0.9996012078311416  1.0000
  V   V12       1.0  0.000731357038373794  0.001082061182859641  0.9997409516683182  1.0000
  V   V13       1.0  0.0061889233634277755  0.006082061273546956  0.9996139962850944  1.0000
  V   V14       1.0  0.0011889238274873182  0.006082061273546956  0.9997537401289797  1.0000
  V   V15       1.0  0.0032313570063696876  0.006082061273546956  0.9995313357382396  1.0000
  V   V16       1.0  0.008231356942361474  0.006082061273546956  0.9996710799329884  1.0000
  Ir  Ir9       1.0  0.004710140344919263  0.003917939045232696  0.9997124101772944  1.0000
  Ir  Ir10      1.0  0.009710139960869987  0.003917939045232696  0.9995726660407884  1.0000
  Ir  Ir11      1.0  0.004710140344919263  0.00824618377667126  0.9997124101772944  1.0000
  Ir  Ir12      1.0  0.009710139960869987  0.00824618377667126  0.9995726660407884  1.0000
  Ir  Ir13      1.0  0.007210140472935688  0.008917939342027543  0.9997822822791412  1.0000
  Ir  Ir14      1.0  0.00221014037692337  0.008917939342027543  0.99964253807992  1.0000
  Ir  Ir15      1.0  0.007210140472935688  0.003246183479876412  0.9997822822791412  1.0000
  Ir  Ir16      1.0  0.00221014037692337  0.003246183479876412  0.99964253807992  1.0000
  V   V17       1.0  0.0036889238754934774  0.001082061182859641  0.9992646355839703  1.0000
  V   V18       1.0  0.0086889234914442  0.001082061182859641  0.9994043797697744  1.0000
  V   V19       1.0  0.005731356814345049  0.001082061182859641  0.9993217192139747  1.0000
  V   V20       1.0  0.000731357038373794  0.001082061182859641  0.9994614636408651  1.0000
  V   V21       1.0  0.0061889233634277755  0.006082061273546956  0.9993345076679275  1.0000
  V   V22       1.0  0.0011889238274873182  0.006082061273546956  0.9994742521015265  1.0000
  V   V23       1.0  0.0032313570063696876  0.006082061273546956  0.9992518471210727  1.0000
  V   V24       1.0  0.008231356942361474  0.006082061273546956  0.9993915913158216  1.0000
  Ir  Ir17      1.0  0.004710140344919263  0.003917939045232696  0.9994329218549843  1.0000
  Ir  Ir18      1.0  0.009710139960869987  0.003917939045232696  0.9992931774236217  1.0000
  Ir  Ir19      1.0  0.004710140344919263  0.00824618377667126  0.9994329218549843  1.0000
  Ir  Ir20      1.0  0.009710139960869987  0.00824618377667126  0.9992931774236217  1.0000
  Ir  Ir21      1.0  0.007210140472935688  0.008917939342027543  0.9995027939568312  1.0000
  Ir  Ir22      1.0  0.00221014037692337  0.008917939342027543  0.9993630497576099  1.0000
  Ir  Ir23      1.0  0.007210140472935688  0.003246183479876412  0.9995027939568312  1.0000
  Ir  Ir24      1.0  0.00221014037692337  0.003246183479876412  0.9993630497576099  1.0000
