data_image0
_chemical_formula_structural       COGa8
_chemical_formula_sum              "C1 O1 Ga8"
_cell_length_a       4.558593884442156
_cell_length_b       4.667665958404541
_cell_length_c       101.93379974365234
_cell_angle_alpha    90.0
_cell_angle_beta     91.0967102165513
_cell_angle_gamma    90.0

_space_group_name_H-M_alt    "P 1"
_space_group_IT_number       1

loop_
  _space_group_symop_operation_xyz
  'x, y, z'

loop_
  _atom_site_type_symbol
  _atom_site_label
  _atom_site_symmetry_multiplicity
  _atom_site_fract_x
  _atom_site_fract_y
  _atom_site_fract_z
  _atom_site_occupancy
  C   C1        1.0  0.008750621546657868  0.0022514652500356274  0.00012354624331793526  1.0000
  O   O1        1.0  0.008750621546657868  0.0022514652500356274  0.00024126994584715782  1.0000
  Ga  Ga1       1.0  0.0024143739378355783  0.0008180410715352896  0.9993420781058671  1.0000
  Ga  Ga2       1.0  0.007574746388300948  0.0009804297206413347  0.9997352543844622  1.0000
  Ga  Ga3       1.0  0.005226638189186732  0.005818040911914171  0.9994154968558667  1.0000
  Ga  Ga4       1.0  8.562605271379676e-05  0.0060919136388456  0.999817885064479  1.0000
  Ga  Ga5       1.0  0.0065117601198297235  0.008925658571194338  5.5738313028923765e-06  1.0000
  Ga  Ga6       1.0  0.0027266383199629476  0.00918195900827527  0.9996112968676759  1.0000
  Ga  Ga7       1.0  0.004760947355459065  0.003914368330071955  0.9999276071555705  1.0000
  Ga  Ga8       1.0  0.009914374567196115  0.0041819587688435925  0.9995378780581673  1.0000
