data_image0
_chemical_formula_structural       COIn8Cu8Se16
_chemical_formula_sum              "C1 O1 In8 Cu8 Se16"
_cell_length_a       13.363953975217639
_cell_length_b       8.426204681396484
_cell_length_c       103.70481872558594
_cell_angle_alpha    90.0
_cell_angle_beta     71.62356990264742
_cell_angle_gamma    71.62356990264742

_space_group_name_H-M_alt    "P 1"
_space_group_IT_number       1

loop_
  _space_group_symop_operation_xyz
  'x, y, z'

loop_
  _atom_site_type_symbol
  _atom_site_label
  _atom_site_symmetry_multiplicity
  _atom_site_fract_x
  _atom_site_fract_y
  _atom_site_fract_z
  _atom_site_occupancy
  C   C1        1.0  0.00472778382859504  0.009659505686363267  0.9998079294929653  1.0000
  O   O1        1.0  0.00472778382859504  0.009659505686363267  0.9999236427690325  1.0000
  In  In1       1.0  0.009226189740643232  0.003143130119820442  0.9992761980596614  1.0000
  In  In2       1.0  0.009556559687716973  0.008223819616150414  0.999612868239923  1.0000
  In  In3       1.0  0.006349555257623173  0.0021435998575740417  0.9996284126110772  1.0000
  In  In4       1.0  0.006726189317110384  0.006893130225481009  0.9991746331019818  1.0000
  In  In5       1.0  0.004265168863842142  0.0006472197024667791  0.999482696679065  1.0000
  In  In6       1.0  0.004226189204998748  0.005643130387642685  0.999073068419027  1.0000
  In  In7       1.0  0.0017261892485977177  0.004393130029841318  0.9993777626407151  1.0000
  In  In8       1.0  0.0017261892485977177  0.009393130259737342  0.9989715037297462  1.0000
  Cu  Cu1       1.0  0.003919898657458671  0.005176849119148525  0.9994997151832429  1.0000
  Cu  Cu2       1.0  0.004226189204998748  0.000643129936692791  0.999073068419027  1.0000
  Cu  Cu3       1.0  0.006726189317110384  0.0018931299955849848  0.9991746331019818  1.0000
  Cu  Cu4       1.0  0.007065308331714275  0.006771655240067768  0.9995150101968989  1.0000
  Cu  Cu5       1.0  0.009226189740643232  0.008143129907608727  0.9992761980596614  1.0000
  Cu  Cu6       1.0  0.00958507528241569  0.0028705573537533995  0.9996087279500007  1.0000
  Cu  Cu7       1.0  0.0017261892485977177  0.004393130029841318  0.9989715037297462  1.0000
  Cu  Cu8       1.0  0.0017261892485977177  0.009393130259737342  0.9993777626407151  1.0000
  Se  Se1       1.0  0.005476189416765172  0.0023649060140709752  0.9990347357488922  1.0000
  Se  Se2       1.0  0.005476189416765172  0.0073649062439669994  0.9994409949472376  1.0000
  Se  Se3       1.0  0.005476189416765172  0.0026713538774442063  0.9994160955023257  1.0000
  Se  Se4       1.0  0.005476189416765172  0.0076713541073402305  0.9990098363039803  1.0000
  Se  Se5       1.0  0.007976189217455597  0.00892135410088916  0.999136300444499  1.0000
  Se  Se6       1.0  0.00796356482436322  0.003932325440998668  0.9995431526982952  1.0000
  Se  Se7       1.0  0.007976189217455597  0.003614906449727644  0.999111400999587  1.0000
  Se  Se8       1.0  0.007907242429644317  0.008864511025558597  0.9995154456425979  1.0000
  Se  Se9       1.0  0.00047618915361424797  0.009864906375542461  0.9992378652955328  1.0000
  Se  Se10      1.0  0.0004149253606691133  0.004976121461780063  0.9996371805465337  1.0000
  Se  Se11      1.0  0.0006681305423508532  0.00013509371385159386  0.999632551149067  1.0000
  Se  Se12      1.0  0.00047618915361424797  0.005171354009019669  0.9992129658506209  1.0000
  Se  Se13      1.0  0.0029761893046535356  0.006421354269501906  0.9993394299769063  1.0000
  Se  Se14      1.0  0.003352263117380345  0.0020663537769144485  0.999746701918868  1.0000
  Se  Se15      1.0  0.0029761893046535356  0.0011149061762326506  0.9993145305319944  1.0000
  Se  Se16      1.0  0.0028056148756216565  0.004949773229237933  0.999720568108368  1.0000
