data_image0
_chemical_formula_structural       HGe8Rh8Ge8Rh8Ge8Rh8
_chemical_formula_sum              "H1 Ge24 Rh24"
_cell_length_a       7.378215989278235
_cell_length_b       12.017004413518789
_cell_length_c       102.98625183105469
_cell_angle_alpha    74.06798980058092
_cell_angle_beta     63.443743758443354
_cell_angle_gamma    82.95084204511748

_space_group_name_H-M_alt    "P 1"
_space_group_IT_number       1

loop_
  _space_group_symop_operation_xyz
  'x, y, z'

loop_
  _atom_site_type_symbol
  _atom_site_label
  _atom_site_symmetry_multiplicity
  _atom_site_fract_x
  _atom_site_fract_y
  _atom_site_fract_z
  _atom_site_occupancy
  H   H1        1.0  0.008358608789885577  0.0030387480869416518  0.9996349453348664  1.0000
  Ge  Ge1       1.0  0.004445215593552777  0.00402479773255956  0.9994698348191696  1.0000
  Ge  Ge2       1.0  0.004357670656497709  0.00904668067148348  0.9993206337894012  1.0000
  Ge  Ge3       1.0  0.005505584000547948  0.0009550225883817688  0.999402191352054  1.0000
  Ge  Ge4       1.0  0.006017795487440745  0.006330776655265895  0.9995549724719216  1.0000
  Ge  Ge5       1.0  0.000621353303725651  0.0014275666954718948  0.9993808537824331  1.0000
  Ge  Ge6       1.0  0.0007407639239077669  0.006447188587236946  0.9995393034626673  1.0000
  Ge  Ge7       1.0  0.009495442136115612  0.003409587223720702  0.999489443569919  1.0000
  Ge  Ge8       1.0  0.009313660066373576  0.008420973951993954  0.9993494964570673  1.0000
  Rh  Rh1       1.0  0.007686165051472287  0.005017365357996105  0.9993733241859096  1.0000
  Rh  Rh2       1.0  0.007997680662007527  0.0099616866582502  0.9994851468799902  1.0000
  Rh  Rh3       1.0  0.0022550001177681933  0.009989073263532287  0.9995142779840803  1.0000
  Rh  Rh4       1.0  0.0018821519397631589  0.005045284220904099  0.9993771701684061  1.0000
  Rh  Rh5       1.0  0.007102789718063668  0.0025089742762255704  0.9994450675296793  1.0000
  Rh  Rh6       1.0  0.007700623038897679  0.0075670341308838925  0.9996160677029097  1.0000
  Rh  Rh7       1.0  0.002969469049778303  0.002586905690484078  0.9994175868995151  1.0000
  Rh  Rh8       1.0  0.003072793366800453  0.007546707112211188  0.9995573007521635  1.0000
  Ge  Ge9       1.0  0.004278459918877945  0.00402744032235941  0.999168236323601  1.0000
  Ge  Ge10      1.0  0.004278459918877945  0.009027440090242214  0.9990080875048302  1.0000
  Ge  Ge11      1.0  0.005504557254271427  0.0009546233951623392  0.999067237932247  1.0000
  Ge  Ge12      1.0  0.005504557254271427  0.005954623001852646  0.9992273864700932  1.0000
  Ge  Ge13      1.0  0.0005045575280328038  0.0015274405996105053  0.9990488905839908  1.0000
  Ge  Ge14      1.0  0.0005045575280328038  0.006527440528685806  0.9992090391115112  1.0000
  Ge  Ge15      1.0  0.009278459433445402  0.0034546231179112437  0.9991865836786369  1.0000
  Ge  Ge16      1.0  0.009278459433445402  0.008454623208179041  0.9990264348495402  1.0000
  Rh  Rh9       1.0  0.007859651869273837  0.004971137284095932  0.9990233051940034  1.0000
  Rh  Rh10      1.0  0.007859651869273837  0.009971137051978735  0.9991834543054497  1.0000
  Rh  Rh11      1.0  0.0019233650216473113  1.0926500169585467e-05  0.9992121690687465  1.0000
  Rh  Rh12      1.0  0.0019233650216473113  0.005010926362501118  0.9990520202469506  1.0000
  Rh  Rh13      1.0  0.006923364818442991  0.00247113740015453  0.9991333686578251  1.0000
  Rh  Rh14      1.0  0.006923364818442991  0.007471137490422329  0.9992935177589456  1.0000
  Rh  Rh15      1.0  0.002859652354706382  0.0025109264785597163  0.99910210559286  1.0000
  Rh  Rh16      1.0  0.002859652354706382  0.00751092624644252  0.9992622541255431  1.0000
  Ge  Ge17      1.0  0.004278459918877945  0.00402744032235941  0.998847938972147  1.0000
  Ge  Ge18      1.0  0.004278459918877945  0.009027440090242214  0.9986877901533762  1.0000
  Ge  Ge19      1.0  0.005504557254271427  0.0009546233951623392  0.9987469400020299  1.0000
  Ge  Ge20      1.0  0.005504557254271427  0.005954623001852646  0.9989070891186392  1.0000
  Ge  Ge21      1.0  0.0005045575280328038  0.0015274405996105053  0.9987285929431553  1.0000
  Ge  Ge22      1.0  0.0005045575280328038  0.006527440528685806  0.9988887417600572  1.0000
  Ge  Ge23      1.0  0.009278459433445402  0.0034546231179112437  0.9988662863271829  1.0000
  Ge  Ge24      1.0  0.009278459433445402  0.008454623208179041  0.9987061374980862  1.0000
  Rh  Rh17      1.0  0.007859651869273837  0.004971137284095932  0.9987030078425493  1.0000
  Rh  Rh18      1.0  0.007859651869273837  0.009971137051978735  0.9988631563752326  1.0000
  Rh  Rh19      1.0  0.0019233650216473113  1.0926500169585467e-05  0.9988918711385294  1.0000
  Rh  Rh20      1.0  0.0019233650216473113  0.005010926362501118  0.9987317223167335  1.0000
  Rh  Rh21      1.0  0.006923364818442991  0.00247113740015453  0.9988130713063711  1.0000
  Rh  Rh22      1.0  0.006923364818442991  0.007471137490422329  0.9989732198287284  1.0000
  Rh  Rh23      1.0  0.002859652354706382  0.0025109264785597163  0.9987818076626428  1.0000
  Rh  Rh24      1.0  0.002859652354706382  0.00751092624644252  0.9989419567740891  1.0000
