data_image0
_chemical_formula_structural       COAl12Ca18Si12
_chemical_formula_sum              "C1 O1 Al12 Ca18 Si12"
_cell_length_a       10.031738234779338
_cell_length_b       9.851046433040658
_cell_length_c       104.17119598388672
_cell_angle_alpha    86.98703998182093
_cell_angle_beta     81.90919710626203
_cell_angle_gamma    107.31344339342965

_space_group_name_H-M_alt    "P 1"
_space_group_IT_number       1

loop_
  _space_group_symop_operation_xyz
  'x, y, z'

loop_
  _atom_site_type_symbol
  _atom_site_label
  _atom_site_symmetry_multiplicity
  _atom_site_fract_x
  _atom_site_fract_y
  _atom_site_fract_z
  _atom_site_occupancy
  C   C1        1.0  0.0035852866001554956  0.0031827016811553917  0.9999355868130171  1.0000
  O   O1        1.0  0.0035852866001554956  0.0031827016811553917  5.0781465441936444e-05  1.0000
  Al  Al1       1.0  0.001956501721272579  0.008074787018433706  0.9996750454339384  1.0000
  Al  Al2       1.0  0.008197145362303948  0.008087433981749449  0.999495234735413  1.0000
  Al  Al3       1.0  0.008772656804092222  0.00804772573380751  0.9997718970558895  1.0000
  Al  Al4       1.0  0.0010100548747825398  0.005278760205418553  0.9996999485784834  1.0000
  Al  Al5       1.0  0.007358409359055141  0.005342478471707225  0.9995202465545538  1.0000
  Al  Al6       1.0  0.007898668990045432  0.005157670113237884  0.9998015558460513  1.0000
  Al  Al7       1.0  0.00041936814949273735  0.008087434324330626  0.9991307575460424  1.0000
  Al  Al8       1.0  0.006530478785015474  0.008087433964144169  0.9989485191988672  1.0000
  Al  Al9       1.0  0.004308256681964176  0.008087433940670463  0.9993129962858303  1.0000
  Al  Al10      1.0  0.009580631462106439  0.005342478305838255  0.999155769182442  1.0000
  Al  Al11      1.0  0.00569174238745111  0.005342478520634494  0.9989735310230217  1.0000
  Al  Al12      1.0  0.0034695202843998117  0.005342478497160787  0.9993380081099849  1.0000
  Ca  Ca1       1.0  0.0003156396222855065  0.006638239568467099  0.999962017265772  1.0000
  Ca  Ca2       1.0  0.004722221771826231  0.006714956038375588  0.9995988595379868  1.0000
  Ca  Ca3       1.0  0.0008333331900653476  0.006714956406684487  0.9994166210850332  1.0000
  Ca  Ca4       1.0  0.002127291815644342  0.002867802262941016  0.9998159869055541  1.0000
  Ca  Ca5       1.0  0.008466512571511807  0.002733924749838559  0.9996326125649247  1.0000
  Ca  Ca6       1.0  0.004693275461100625  0.002983858611266992  0.9994506186094005  1.0000
  Ca  Ca7       1.0  0.0008622797965276206  0.0004460540754813917  0.9995648623517176  1.0000
  Ca  Ca8       1.0  0.006973390974234248  0.0004460541208372058  0.9993826234229983  1.0000
  Ca  Ca9       1.0  0.004625218961851554  0.00039926163676394516  0.9997447679838787  1.0000
  Ca  Ca10      1.0  0.006944444269193086  0.0067149561846594225  0.9992343827311587  1.0000
  Ca  Ca11      1.0  0.003055555391695535  0.006714956460860725  0.9990521442826712  1.0000
  Ca  Ca12      1.0  0.009166666372244385  0.006714956208133128  0.9988699056441956  1.0000
  Ca  Ca13      1.0  0.0008043867314714085  0.0029838587441794154  0.9992683801596212  1.0000
  Ca  Ca14      1.0  0.006915497564151924  0.0029838585400693606  0.9990861418089979  1.0000
  Ca  Ca15      1.0  0.0030266088838121516  0.0029838585936617116  0.9989039033589446  1.0000
  Ca  Ca16      1.0  0.009195613077285546  0.000446053954968236  0.9990181466230662  1.0000
  Ca  Ca17      1.0  0.005306724002630218  0.00044605398042179824  0.9988359081784972  1.0000
  Ca  Ca18      1.0  0.003084501899578919  0.00044605400428376034  0.9992003849791352  1.0000
  Si  Si1       1.0  0.0012119467072934929  0.009564917501112165  0.9998409568694621  1.0000
  Si  Si2       1.0  0.007310858846033567  0.009390480767045488  0.9996693400614254  1.0000
  Si  Si3       1.0  0.0036595441058543334  0.009600737703392932  0.9994814455766995  1.0000
  Si  Si4       1.0  0.0018960109546161342  0.003829174393684319  0.9995340356188938  1.0000
  Si  Si5       1.0  0.009395622545906155  0.0037393026427793566  0.9998898810709913  1.0000
  Si  Si6       1.0  0.005644741156000471  0.0038675078292162344  0.9997176141197934  1.0000
  Si  Si7       1.0  0.00977065528356096  0.009600738269441108  0.9992992066453922  1.0000
  Si  Si8       1.0  0.005881766208905632  0.00960073772686664  0.9991169682036466  1.0000
  Si  Si9       1.0  0.001992877725723638  0.00960073812587807  0.9989347300352941  1.0000
  Si  Si10      1.0  0.00022934442661710515  0.0038291743914303047  0.9989873200816036  1.0000
  Si  Si11      1.0  0.008007121540849427  0.003829174302160612  0.9993517966988714  1.0000
  Si  Si12      1.0  0.004118233254825211  0.0038291744785630896  0.9991695582428634  1.0000
