data_image0
_chemical_formula_structural       HPd40Sb14
_chemical_formula_sum              "H1 Pd40 Sb14"
_cell_length_a       7.833558247456388
_cell_length_b       7.833558140116623
_cell_length_c       115.58722686767578
_cell_angle_alpha    91.11171631731557
_cell_angle_beta     91.1117163020803
_cell_angle_gamma    99.14810220288898

_space_group_name_H-M_alt    "P 1"
_space_group_IT_number       1

loop_
  _space_group_symop_operation_xyz
  'x, y, z'

loop_
  _atom_site_type_symbol
  _atom_site_label
  _atom_site_symmetry_multiplicity
  _atom_site_fract_x
  _atom_site_fract_y
  _atom_site_fract_z
  _atom_site_occupancy
  H   H1        1.0  0.007217405081110791  0.004669791279036852  1.5630496018963067e-05  1.0000
  Pd  Pd1       1.0  0.0004900207951773595  7.778995048914359e-05  0.9998804355770904  1.0000
  Pd  Pd2       1.0  0.0021421944579055373  0.001669201899916978  0.9992169506162423  1.0000
  Pd  Pd3       1.0  0.008426286037566592  0.007953293649804951  0.9997126358503121  1.0000
  Pd  Pd4       1.0  9.29529732430363e-05  0.009619960522042618  0.9990553078911366  1.0000
  Pd  Pd5       1.0  0.0018907689373128646  0.0025646171352441734  0.999464207334727  1.0000
  Pd  Pd6       1.0  0.0035574356681079456  0.004231283766578324  0.998806879372387  1.0000
  Pd  Pd7       1.0  0.0017196612007257307  0.00377485785073794  0.9998964123210234  1.0000
  Pd  Pd8       1.0  0.003601950159530905  0.005368159003164848  0.9992416331722032  1.0000
  Pd  Pd9       1.0  0.00410023545313241  0.00994168620156475  0.9999663663165115  1.0000
  Pd  Pd10      1.0  0.005650011345711478  0.0017909766990874744  0.9993170186363846  1.0000
  Pd  Pd11      1.0  0.008677711320336838  0.007057878414477757  0.9994653791315147  1.0000
  Pd  Pd12      1.0  0.00034437837492449586  0.008724545286715422  0.9988080516881637  1.0000
  Pd  Pd13      1.0  0.008633197066736304  0.005921003177891233  0.9990306253320111  1.0000
  Pd  Pd14      1.0  0.00696653037434689  0.004254336787460597  0.9996879532947185  1.0000
  Pd  Pd15      1.0  0.006585135918961398  0.00949818572287212  0.9989552403838652  1.0000
  Pd  Pd16      1.0  0.004918469149760653  0.007831518850634456  0.9996125683458379  1.0000
  Pd  Pd17      1.0  0.003321036812930569  0.0044109577981446555  0.9996694710931364  1.0000
  Pd  Pd18      1.0  0.004987703344308888  0.006077624670382321  0.999012143130851  1.0000
  Pd  Pd19      1.0  0.005643620761673318  0.008165737786399974  0.999369859509228  1.0000
  Pd  Pd20      1.0  0.004037122945760936  0.006381911344515738  2.324811745217611e-05  1.0000
  Pd  Pd21      1.0  0.008378244219576933  0.0033472293000745357  0.9994725941566337  1.0000
  Pd  Pd22      1.0  4.4911116847711185e-05  0.005013895931408687  0.9988152661970909  1.0000
  Pd  Pd23      1.0  0.00724744340631347  0.00521153751067376  0.9992601158884061  1.0000
  Pd  Pd24      1.0  0.005432657510881107  0.0034763359976979335  0.9999121265670354  1.0000
  Pd  Pd25      1.0  0.00492485981061014  0.0014567582451289849  0.9995597274737291  1.0000
  Pd  Pd26      1.0  0.006591526541405221  0.003123424876463136  0.998902399511389  1.0000
  Pd  Pd27      1.0  0.0021902362758951977  0.006275266249647394  0.9994569928255888  1.0000
  Pd  Pd28      1.0  0.003856902807273517  0.00794193312188506  0.9987996648633033  1.0000
  Pd  Pd29      1.0  0.008989423622116154  0.0003875093526934909  0.9993285456050426  1.0000
  Pd  Pd30      1.0  0.007387543238368703  0.008809292252148288  0.9999856568481146  1.0000
  Pd  Pd31      1.0  0.009955089101320555  0.002178540586313979  0.9996856376627631  1.0000
  Pd  Pd32      1.0  0.001621755522946481  0.00384520721764813  0.9990283097025948  1.0000
  Pd  Pd33      1.0  0.002313261344878945  0.007279945201041652  0.9998099503763596  1.0000
  Pd  Pd34      1.0  0.004006353301183062  0.008965838100935935  0.9991513009664325  1.0000
  Pd  Pd35      1.0  0.0015790572231194424  0.009234986106689621  0.999601041377521  1.0000
  Pd  Pd36      1.0  0.0032457238900840736  0.0009016530704706223  0.9989437134181126  1.0000
  Pd  Pd37      1.0  0.0006133917892908796  0.007443955204311465  0.9992439493202958  1.0000
  Pd  Pd38      1.0  0.00890008981381836  0.005761183450346401  0.9999058192940868  1.0000
  Pd  Pd39      1.0  0.008228793925084148  0.0023233240801201456  0.99912095805345  1.0000
  Pd  Pd40      1.0  0.006562127194289067  0.0006566574487859943  0.9997782860157901  1.0000
  Sb  Sb1       1.0  0.006950906798317217  0.006477914767550387  0.9988074655290095  1.0000
  Sb  Sb2       1.0  0.005284240504761323  0.004811247895312722  0.9994647934916076  1.0000
  Sb  Sb3       1.0  0.007269362927124138  0.008318631537913233  0.9991658129158948  1.0000
  Sb  Sb4       1.0  0.005640618432049573  0.00666042037902194  0.999827908878714  1.0000
  Sb  Sb5       1.0  0.007829044945890965  5.831384992837726e-05  0.9995454509383445  1.0000
  Sb  Sb6       1.0  0.009495711673085515  0.0017249804586778241  0.99888812297597  1.0000
  Sb  Sb7       1.0  0.00027759606354812235  0.00558008086094121  0.9996455135033284  1.0000
  Sb  Sb8       1.0  0.001944262773293261  0.007246747733178875  0.9989881855412776  1.0000
  Sb  Sb9       1.0  0.0032991175299423277  0.001303863770905183  0.9997637740659604  1.0000
  Sb  Sb10      1.0  0.004965784260737409  0.002970530402239334  0.9991064461036204  1.0000
  Sb  Sb11      1.0  0.0027394356720929097  0.009564181722378258  0.9993841360440688  1.0000
  Sb  Sb12      1.0  0.001178846162338405  0.007852573817770436  3.766192911023358e-05  1.0000
  Sb  Sb13      1.0  0.000290884607077567  0.004042414929684234  0.9992840734820194  1.0000
  Sb  Sb14      1.0  0.00845628169334731  0.00233639887744667  0.9999544965455225  1.0000
