data_image0
_chemical_formula_structural       HCo12Sb24
_chemical_formula_sum              "H1 Co12 Sb24"
_cell_length_a       11.271186676524152
_cell_length_b       9.219553494157122
_cell_length_c       107.74178314208984
_cell_angle_alpha    102.14513051048569
_cell_angle_beta     90.30493534613677
_cell_angle_gamma    52.51584426828437

_space_group_name_H-M_alt    "P 1"
_space_group_IT_number       1

loop_
  _space_group_symop_operation_xyz
  'x, y, z'

loop_
  _atom_site_type_symbol
  _atom_site_label
  _atom_site_symmetry_multiplicity
  _atom_site_fract_x
  _atom_site_fract_y
  _atom_site_fract_z
  _atom_site_occupancy
  H   H1        1.0  0.005525587667136449  0.004388625281098972  0.00015827510756349155  1.0000
  Co  Co1       1.0  0.007646745792506374  0.002747610275552825  0.9997302638935454  1.0000
  Co  Co2       1.0  0.0009800790569413724  0.006080942879876099  2.217904416435924e-05  1.0000
  Co  Co3       1.0  0.004313412582908825  0.009414276041492272  0.9994383483671639  1.0000
  Co  Co4       1.0  0.004014957651855124  0.004768989044581804  0.9994694123367629  1.0000
  Co  Co5       1.0  0.0073482917051057505  0.008102321796507205  0.9997613275160647  1.0000
  Co  Co6       1.0  0.0006816243368009409  0.0014356561324042796  5.324329498022851e-05  1.0000
  Co  Co7       1.0  0.005686587889536898  0.006425729139764792  5.3677531140646325e-05  1.0000
  Co  Co8       1.0  0.009019921099134447  0.009759061720565511  0.9994698468435076  1.0000
  Co  Co9       1.0  0.0023532544690260805  0.003092395896210463  0.9997617623433402  1.0000
  Co  Co10      1.0  0.009318376030188147  0.004404349544105896  0.9994387829330479  1.0000
  Co  Co11      1.0  0.002651709189166512  0.007737683056997241  0.9997306986531829  1.0000
  Co  Co12      1.0  0.005985042820590599  0.001071016136675259  2.2613882407831112e-05  1.0000
  Sb  Sb1       1.0  0.004466021409971337  0.007166017521029688  0.9995535420498255  1.0000
  Sb  Sb2       1.0  0.007799355041395424  0.0004993506007077061  0.9998454572790505  1.0000
  Sb  Sb3       1.0  0.0011326882003737883  0.003832683700284093  0.9992616265751425  1.0000
  Sb  Sb4       1.0  0.0062381054196219725  0.002265735080771462  0.9995622748882899  1.0000
  Sb  Sb5       1.0  0.009571439051046059  0.005599068160449481  0.9998541900732574  1.0000
  Sb  Sb6       1.0  0.002904771999111154  0.008932401837217135  0.9992703593796233  1.0000
  Sb  Sb7       1.0  0.008867312693898474  0.0020073215665353103  0.9993546535058103  1.0000
  Sb  Sb8       1.0  0.00220064522013703  0.005340655571055583  0.999646568957835  1.0000
  Sb  Sb9       1.0  0.005533979062474386  0.008673987660227377  0.9999384841250878  1.0000
  Sb  Sb10      1.0  0.007095228684247838  0.00690760318016362  0.9993459206524641  1.0000
  Sb  Sb11      1.0  0.00042856152685629865  0.0002409372488556461  0.9996378361500776  1.0000
  Sb  Sb12      1.0  0.0037618950528237514  0.0035742701004856012  0.9999297513308809  1.0000
  Sb  Sb13      1.0  0.0074455969637884116  0.005260668774996152  0.9996359895386363  1.0000
  Sb  Sb14      1.0  0.0007789297536685546  0.008594002574671038  0.9999279052637288  1.0000
  Sb  Sb15      1.0  0.004112263332364325  0.0019273356953181326  0.9993440743536688  1.0000
  Sb  Sb16      1.0  0.0018230670197060081  0.007042010126022669  0.999354116859461  1.0000
  Sb  Sb17      1.0  0.005156400440216826  0.00037534336957699795  0.9996460320915188  1.0000
  Sb  Sb18      1.0  0.008489734071640914  0.0037086764492550166  0.9999379478297039  1.0000
  Sb  Sb19      1.0  0.005887737140081398  0.00391266948593893  0.9992722057255088  1.0000
  Sb  Sb20      1.0  0.009221070771505486  0.007246003392246865  0.9995641209253583  1.0000
  Sb  Sb21      1.0  0.002554403719570581  0.0005793366556995601  0.9998560366851426  1.0000
  Sb  Sb22      1.0  0.0015102665062614446  0.00213132906337885  0.9995540783954914  1.0000
  Sb  Sb23      1.0  0.0048436000322288975  0.005464662638309981  0.9998459941425338  1.0000
  Sb  Sb24      1.0  0.008176933663652984  0.008797994891358085  0.9992621631726263  1.0000
