data_image0
_chemical_formula_structural       HCu4Ru12
_chemical_formula_sum              "H1 Cu4 Ru12"
_cell_length_a       4.728821648273298
_cell_length_b       5.263510704040527
_cell_length_c       104.98503875732422
_cell_angle_alpha    90.0
_cell_angle_beta     89.6569281896066
_cell_angle_gamma    90.0

_space_group_name_H-M_alt    "P 1"
_space_group_IT_number       1

loop_
  _space_group_symop_operation_xyz
  'x, y, z'

loop_
  _atom_site_type_symbol
  _atom_site_label
  _atom_site_symmetry_multiplicity
  _atom_site_fract_x
  _atom_site_fract_y
  _atom_site_fract_z
  _atom_site_occupancy
  H   H1        1.0  0.007787175439755246  0.006250000283103086  0.00014077373605966882  1.0000
  Cu  Cu1       1.0  0.002812500157559636  0.00375000009908608  0.9999978925008816  1.0000
  Cu  Cu2       1.0  0.0059375001575596355  0.008750000113241235  0.9997896186661551  1.0000
  Cu  Cu3       1.0  0.002187500078779818  0.008750000113241235  0.9993730709552072  1.0000
  Cu  Cu4       1.0  0.009062500157559637  0.00375000009908608  0.9995813448314287  1.0000
  Ru  Ru1       1.0  0.0009375000196949545  0.0012500000035387886  0.9997896187873703  1.0000
  Ru  Ru2       1.0  0.004062500315119271  0.006250000283103086  0.9995813449525641  1.0000
  Ru  Ru3       1.0  0.0078125  0.006250000283103086  0.9999978929474904  1.0000
  Ru  Ru4       1.0  0.007187500315119271  0.0012500000035387886  0.9993730708339655  1.0000
  Ru  Ru5       1.0  0.0009375000196949545  0.006250000283103086  0.9997896187873703  1.0000
  Ru  Ru6       1.0  0.004062500315119271  0.0012500000035387886  0.9995813449525641  1.0000
  Ru  Ru7       1.0  0.0078125  0.0012500000035387886  0.9999978929474904  1.0000
  Ru  Ru8       1.0  0.007187500315119271  0.006250000283103086  0.9993730708339655  1.0000
  Ru  Ru9       1.0  0.0059375001575596355  0.00375000009908608  0.9997896186661551  1.0000
  Ru  Ru10      1.0  0.009062500157559637  0.008750000113241235  0.9995813448314287  1.0000
  Ru  Ru11      1.0  0.002812500157559636  0.008750000113241235  0.9999978925008816  1.0000
  Ru  Ru12      1.0  0.002187500078779818  0.00375000009908608  0.9993730709552072  1.0000
