data_image0
_chemical_formula_structural       COSi4Ni8Si4Ni8Si4Ni8Si4Ni8
_chemical_formula_sum              "C1 O1 Si16 Ni32"
_cell_length_a       6.385826811675014
_cell_length_b       7.882988960078392
_cell_length_c       108.31495666503906
_cell_angle_alpha    72.02435468751773
_cell_angle_beta     103.77239619683478
_cell_angle_gamma    72.02435367600378

_space_group_name_H-M_alt    "P 1"
_space_group_IT_number       1

loop_
  _space_group_symop_operation_xyz
  'x, y, z'

loop_
  _atom_site_type_symbol
  _atom_site_label
  _atom_site_symmetry_multiplicity
  _atom_site_fract_x
  _atom_site_fract_y
  _atom_site_fract_z
  _atom_site_occupancy
  C   C1        1.0  0.009046620913022907  0.003117366911604223  1.5883420341296787e-05  1.0000
  O   O1        1.0  0.009046620913022907  0.003117366911604223  0.0001266711183981759  1.0000
  Si  Si1       1.0  0.009166666279641321  0.004166666726199867  0.9997613550972468  1.0000
  Si  Si2       1.0  0.004166666490746055  0.004166666594362328  0.999466574933091  1.0000
  Si  Si3       1.0  0.0033333331925968442  0.000833333260585129  0.999712224934087  1.0000
  Si  Si4       1.0  0.00833333298149211  0.0008333332682165626  0.9994174446838321  1.0000
  Ni  Ni1       1.0  0.0008333332981492111  0.0008333333188724654  0.9998596153329646  1.0000
  Ni  Ni2       1.0  0.005833333087044477  0.0008333332022977926  0.9995648350854994  1.0000
  Ni  Ni3       1.0  0.0016666665962984221  0.00416666677685577  0.9996139647788889  1.0000
  Ni  Ni4       1.0  0.0066666663851936885  0.00416666690869331  0.9999087454933349  1.0000
  Ni  Ni5       1.0  0.00374999984167145  0.0025000001137828877  0.9998841804131497  1.0000
  Ni  Ni6       1.0  0.008749999630566717  0.0025000002456204277  0.9995894001601051  1.0000
  Ni  Ni7       1.0  0.0012500000296866032  0.0025000000196537236  0.9994420098491175  1.0000
  Ni  Ni8       1.0  0.006249999736119083  0.0024999999312894446  0.9997367900170618  1.0000
  Si  Si5       1.0  0.009166666279641321  0.004166666726199867  0.9991717941297563  1.0000
  Si  Si6       1.0  0.004166666490746055  0.004166666594362328  0.9988770139656004  1.0000
  Si  Si7       1.0  0.0033333331925968442  0.000833333260585129  0.9991226645168865  1.0000
  Si  Si8       1.0  0.00833333298149211  0.0008333332682165626  0.9988278837163415  1.0000
  Ni  Ni9       1.0  0.0008333332981492111  0.0008333333188724654  0.999270054365474  1.0000
  Ni  Ni10      1.0  0.005833333087044477  0.0008333332022977926  0.9989752741180088  1.0000
  Ni  Ni11      1.0  0.0016666665962984221  0.00416666677685577  0.9990244043616884  1.0000
  Ni  Ni12      1.0  0.0066666663851936885  0.00416666690869331  0.9993191845258442  1.0000
  Ni  Ni13      1.0  0.00374999984167145  0.0025000001137828877  0.9992946194456591  1.0000
  Ni  Ni14      1.0  0.008749999630566717  0.0025000002456204277  0.9989998389174695  1.0000
  Ni  Ni15      1.0  0.0012500000296866032  0.0025000000196537236  0.9988524488816269  1.0000
  Ni  Ni16      1.0  0.006249999736119083  0.0024999999312894446  0.9991472290495712  1.0000
  Si  Si9       1.0  0.009166666279641321  0.00916666650759712  0.9997613555093714  1.0000
  Si  Si10      1.0  0.004166666490746055  0.009166666872584005  0.9994665747837667  1.0000
  Si  Si11      1.0  0.0033333331925968442  0.005833333414600701  0.9997122253378424  1.0000
  Si  Si12      1.0  0.00833333298149211  0.0058333335464382415  0.9994174445345076  1.0000
  Ni  Ni17      1.0  0.0008333332981492111  0.005833333597094144  0.9998596151836402  1.0000
  Ni  Ni18      1.0  0.005833333087044477  0.005833333232107258  0.9995648349417544  1.0000
  Ni  Ni19      1.0  0.0016666665962984221  0.009166666558253024  0.9996139651910134  1.0000
  Ni  Ni20      1.0  0.0066666663851936885  0.009166667186914989  0.9999087453440104  1.0000
  Ni  Ni21      1.0  0.00374999984167145  0.007499999895180141  0.9998841802749842  1.0000
  Ni  Ni22      1.0  0.008749999630566717  0.007500000523842106  0.9995894000107807  1.0000
  Ni  Ni23      1.0  0.0012500000296866032  0.007500000049463189  0.9994420097053726  1.0000
  Ni  Ni24      1.0  0.006249999736119083  0.0075000002095111235  0.9997367904180274  1.0000
  Si  Si13      1.0  0.009166666279641321  0.00916666650759712  0.9991717945418809  1.0000
  Si  Si14      1.0  0.004166666490746055  0.009166666872584005  0.998877013816276  1.0000
  Si  Si15      1.0  0.0033333331925968442  0.005833333414600701  0.9991226643703518  1.0000
  Si  Si16      1.0  0.00833333298149211  0.0058333335464382415  0.9988278838421621  1.0000
  Ni  Ni25      1.0  0.0008333332981492111  0.005833333597094144  0.9992700542161497  1.0000
  Ni  Ni26      1.0  0.005833333087044477  0.005833333232107258  0.9989752739742639  1.0000
  Ni  Ni27      1.0  0.0016666665962984221  0.009166666558253024  0.9990244042235228  1.0000
  Ni  Ni28      1.0  0.0066666663851936885  0.009166667186914989  0.9993191843765199  1.0000
  Ni  Ni29      1.0  0.00374999984167145  0.007499999895180141  0.9992946193074936  1.0000
  Ni  Ni30      1.0  0.008749999630566717  0.007500000523842106  0.9989998390432901  1.0000
  Ni  Ni31      1.0  0.0012500000296866032  0.007500000049463189  0.9988524487378819  1.0000
  Ni  Ni32      1.0  0.006249999736119083  0.0075000002095111235  0.9991472294505369  1.0000
