data_image0
_chemical_formula_structural       COGa10Rh6Ga10Rh6
_chemical_formula_sum              "C1 O1 Ga20 Rh12"
_cell_length_a       5.048200267399949
_cell_length_b       8.020861801964134
_cell_length_c       110.54876708984375
_cell_angle_alpha    100.93681108073099
_cell_angle_beta     101.40113089160394
_cell_angle_gamma    104.73405953174257

_space_group_name_H-M_alt    "P 1"
_space_group_IT_number       1

loop_
  _space_group_symop_operation_xyz
  'x, y, z'

loop_
  _atom_site_type_symbol
  _atom_site_label
  _atom_site_symmetry_multiplicity
  _atom_site_fract_x
  _atom_site_fract_y
  _atom_site_fract_z
  _atom_site_occupancy
  C   C1        1.0  0.001684471665674564  0.002093033833329743  0.00016106430005240137  1.0000
  O   O1        1.0  0.001684471665674564  0.002093033833329743  0.00026961335971127426  1.0000
  Ga  Ga1       1.0  0.0021110037889510063  0.004614794501342077  0.9990707145571575  1.0000
  Ga  Ga2       1.0  0.007650266335863996  0.005406787219817519  0.9991281735410144  1.0000
  Ga  Ga3       1.0  0.0007449281443121552  0.009555099721608576  0.9992962871066157  1.0000
  Ga  Ga4       1.0  0.009016342047878361  0.00046648230980896255  0.9989026007268499  1.0000
  Ga  Ga5       1.0  0.004367167605481262  0.007269427973073684  0.9993177749994339  1.0000
  Ga  Ga6       1.0  0.005394102719295978  0.002752153748085912  0.9994924384725379  1.0000
  Ga  Ga7       1.0  0.0030744540840557544  0.0012895742295214111  0.999115583761069  1.0000
  Ga  Ga8       1.0  0.0066868162663919345  0.00873200773984454  0.999083304072971  1.0000
  Ga  Ga9       1.0  0.009469169272829278  0.006546328402946439  0.9994624280727725  1.0000
  Ga  Ga10      1.0  0.0002921007696483314  0.003475253318213158  0.9993477853966509  1.0000
  Rh  Rh1       1.0  0.0014019822362752628  0.007766955126928201  0.999091022612924  1.0000
  Rh  Rh2       1.0  0.00835928806283153  0.0022546263460250415  0.999107865213819  1.0000
  Rh  Rh3       1.0  0.00352868319531511  0.009512958254058209  0.9988995503946344  1.0000
  Rh  Rh4       1.0  0.0062325869220189525  0.0005086236222303586  0.9992993374360201  1.0000
  Rh  Rh5       1.0  0.0044371689024619776  0.005792903476941319  0.998913107934236  1.0000
  Rh  Rh6       1.0  0.005324100900474981  0.004228677747805569  0.9992857798846115  1.0000
  Ga  Ga11      1.0  0.0021110037889510063  0.004614794501342077  0.9996820399291524  1.0000
  Ga  Ga12      1.0  0.007650266335863996  0.005406787219817519  0.9997394991825945  1.0000
  Ga  Ga13      1.0  0.0008227208115126093  0.009475370876684855  0.9999288775603087  1.0000
  Ga  Ga14      1.0  0.009016342047878361  0.00046648230980896255  0.9995139263684301  1.0000
  Ga  Ga15      1.0  0.004409610818184193  0.007303935109598076  0.9999222405549928  1.0000
  Ga  Ga16      1.0  0.00525930378172221  0.0025725697496389766  8.288807926338016e-05  1.0000
  Ga  Ga17      1.0  0.0030744540840557544  0.0012895742295214111  0.999726909133064  1.0000
  Ga  Ga18      1.0  0.0066868162663919345  0.00873200773984454  0.9996946294449659  1.0000
  Ga  Ga19      1.0  0.00970789996178366  0.0065495297684959874  2.5444355377844762e-05  1.0000
  Ga  Ga20      1.0  0.00032234125791998796  0.0032824865839104584  0.9999623858295141  1.0000
  Rh  Rh7       1.0  0.0014019822362752628  0.007766955126928201  0.999702347984919  1.0000
  Rh  Rh8       1.0  0.00835928806283153  0.0022546263460250415  0.9997191905858139  1.0000
  Rh  Rh9       1.0  0.00352868319531511  0.009512958254058209  0.9995108760362146  1.0000
  Rh  Rh10      1.0  0.006207044315024071  0.00044490092248691105  0.9999088139675649  1.0000
  Rh  Rh11      1.0  0.0044371689024619776  0.005792903476941319  0.9995244335758162  1.0000
  Rh  Rh12      1.0  0.005133247044763582  0.004248298460062652  0.9998983545839358  1.0000
