data_image0
_chemical_formula_structural       CONa6Au2Na6Au2
_chemical_formula_sum              "C1 O1 Na12 Au4"
_cell_length_a       5.204253196716309
_cell_length_b       7.820350170135498
_cell_length_c       101.22551727294922
_cell_angle_alpha    90.0
_cell_angle_beta     90.0
_cell_angle_gamma    90.0

_space_group_name_H-M_alt    "P 1"
_space_group_IT_number       1

loop_
  _space_group_symop_operation_xyz
  'x, y, z'

loop_
  _atom_site_type_symbol
  _atom_site_label
  _atom_site_symmetry_multiplicity
  _atom_site_fract_x
  _atom_site_fract_y
  _atom_site_fract_z
  _atom_site_occupancy
  C   C1        1.0  0.0025000000357908248  0.0036225773206829586  0.00016720894319501055  1.0000
  O   O1        1.0  0.0025000000357908248  0.0036225773206829586  0.00028575577839361986  1.0000
  Na  Na1       1.0  9.999999890146481e-11  0.0025000001619618906  0.9992158073798008  1.0000
  Na  Na2       1.0  0.0049999997136734005  0.0025000001619618906  0.9994728694610107  1.0000
  Na  Na3       1.0  0.0049999997136734005  5.000000197030347e-11  0.9992158073798008  1.0000
  Na  Na4       1.0  0.0049999997136734005  0.007500000247706421  0.9994728694610107  1.0000
  Na  Na5       1.0  9.999999890146481e-11  0.007500000247706421  0.9992158073798008  1.0000
  Na  Na6       1.0  9.999999890146481e-11  0.005000000323923781  0.9994728694610107  1.0000
  Au  Au1       1.0  9.999999890146481e-11  5.000000197030347e-11  0.9994728694610107  1.0000
  Au  Au2       1.0  0.0049999997136734005  0.005000000323923781  0.9992158073798008  1.0000
  Na  Na7       1.0  1.9999999780292961e-10  0.002566251387994351  0.9997271213499404  1.0000
  Na  Na8       1.0  0.0049999997136734005  0.002245154793800638  0.0  1.0000
  Na  Na9       1.0  0.0050000000715816496  5.000000197030347e-11  0.9997243302946427  1.0000
  Na  Na10      1.0  0.0049999997136734005  0.007754845377688422  0.0  1.0000
  Na  Na11      1.0  0.009999999427346801  0.007433748783494709  0.9997271213499404  1.0000
  Na  Na12      1.0  9.999999890146481e-11  0.005000000323923781  0.9999922015324132  1.0000
  Au  Au3       1.0  0.009999999427346801  0.009999999695130558  0.9999544963773657  1.0000
  Au  Au4       1.0  0.0049999993557651515  0.004999999847565279  0.9997261562571907  1.0000
