data_image0
_chemical_formula_structural       HMn4Rh8Si4Mn4Rh8Si4Mn4Rh8Si4Mn4Rh8Si4
_chemical_formula_sum              "H1 Mn16 Rh32 Si16"
_cell_length_a       8.398798942565918
_cell_length_b       8.398798942565918
_cell_length_c       105.63308715820312
_cell_angle_alpha    90.0
_cell_angle_beta     90.0
_cell_angle_gamma    90.0

_space_group_name_H-M_alt    "P 1"
_space_group_IT_number       1

loop_
  _space_group_symop_operation_xyz
  'x, y, z'

loop_
  _atom_site_type_symbol
  _atom_site_label
  _atom_site_symmetry_multiplicity
  _atom_site_fract_x
  _atom_site_fract_y
  _atom_site_fract_z
  _atom_site_occupancy
  H   H1        1.0  0.0012500065290613062  0.0012500027588832421  0.00011662656801395974  1.0000
  Mn  Mn1       1.0  0.00250000152581324  0.002500002412913961  0.999886793982936  1.0000
  Mn  Mn2       1.0  1.4999999555279039e-09  3.650000068035644e-09  0.9995870189741606  1.0000
  Mn  Mn3       1.0  0.00250000130403806  0.002500003521789862  0.9993059119805006  1.0000
  Mn  Mn4       1.0  1.4999999555279039e-09  3.650000068035644e-09  0.9990248044225793  1.0000
  Rh  Rh1       1.0  6.799999657392302e-09  0.0025000088443941876  0.9997206382660048  1.0000
  Rh  Rh2       1.0  0.002499987332201705  0.00999999634514503  0.9997206292378268  1.0000
  Rh  Rh3       1.0  0.0025000146105488737  4.549999829851093e-09  0.9999999830721662  1.0000
  Rh  Rh4       1.0  0.009999998119346471  0.0025000010822628796  0.0  1.0000
  Rh  Rh5       1.0  1.4999999555279039e-09  0.002500003521789862  0.9991653579194094  1.0000
  Rh  Rh6       1.0  0.00250000130403806  3.650000068035644e-09  0.9991653579194094  1.0000
  Rh  Rh7       1.0  0.00250000130403806  3.650000068035644e-09  0.9994464654773306  1.0000
  Rh  Rh8       1.0  1.4999999555279039e-09  0.002500003521789862  0.9994464654773306  1.0000
  Si  Si1       1.0  0.009999993683842866  5.349999665131779e-09  0.9998751871315601  1.0000
  Si  Si2       1.0  0.00250000130403806  0.002500003521789862  0.9995870189741606  1.0000
  Si  Si3       1.0  1.4999999555279039e-09  3.650000068035644e-09  0.9993059119805006  1.0000
  Si  Si4       1.0  0.00250000130403806  0.002500003521789862  0.9990248044225793  1.0000
  Mn  Mn5       1.0  0.00250000152581324  0.007500001916137557  0.999886793982936  1.0000
  Mn  Mn6       1.0  1.4999999555279039e-09  0.005000003495176841  0.9995870189741606  1.0000
  Mn  Mn7       1.0  0.00250000130403806  0.007500003690338999  0.9993059119805006  1.0000
  Mn  Mn8       1.0  1.4999999555279039e-09  0.005000003495176841  0.9990248044225793  1.0000
  Rh  Rh9       1.0  6.799999657392302e-09  0.0075000090129433246  0.9997206382660048  1.0000
  Rh  Rh10      1.0  0.002499987332201705  0.004999995954820712  0.9997206292378268  1.0000
  Rh  Rh11      1.0  0.0025000146105488737  0.005000004382277562  0.9999999830721662  1.0000
  Rh  Rh12      1.0  0.009999998119346471  0.007500001029036836  0.0  1.0000
  Rh  Rh13      1.0  1.4999999555279039e-09  0.007500003690338999  0.9991653579194094  1.0000
  Rh  Rh14      1.0  0.00250000130403806  0.005000003495176841  0.9991653579194094  1.0000
  Rh  Rh15      1.0  0.00250000130403806  0.005000003495176841  0.9994464654773306  1.0000
  Rh  Rh16      1.0  1.4999999555279039e-09  0.007500003690338999  0.9994464654773306  1.0000
  Si  Si5       1.0  0.009999993683842866  0.005000005269378283  0.9998751871315601  1.0000
  Si  Si6       1.0  0.00250000130403806  0.007500003690338999  0.9995870189741606  1.0000
  Si  Si7       1.0  1.4999999555279039e-09  0.005000003495176841  0.9993059119805006  1.0000
  Si  Si8       1.0  0.00250000130403806  0.007500003690338999  0.9990248044225793  1.0000
  Mn  Mn9       1.0  0.007500001029036836  0.002500002412913961  0.999886793982936  1.0000
  Mn  Mn10      1.0  0.005000001277425038  3.650000068035644e-09  0.9995870189741606  1.0000
  Mn  Mn11      1.0  0.007500001029036836  0.002500003521789862  0.9993059119805006  1.0000
  Mn  Mn12      1.0  0.005000001277425038  3.650000068035644e-09  0.9990248044225793  1.0000
  Rh  Rh17      1.0  0.005000006600029363  0.0025000088443941876  0.9997206382660048  1.0000
  Rh  Rh18      1.0  0.007499986835425301  0.00999999634514503  0.9997206292378268  1.0000
  Rh  Rh19      1.0  0.007500014335547651  4.549999829851093e-09  0.9999999830721662  1.0000
  Rh  Rh20      1.0  0.004999998172572515  0.0025000010822628796  0.0  1.0000
  Rh  Rh21      1.0  0.005000001277425038  0.002500003521789862  0.9991653579194094  1.0000
  Rh  Rh22      1.0  0.007500001029036836  3.650000068035644e-09  0.9991653579194094  1.0000
  Rh  Rh23      1.0  0.007500001029036836  3.650000068035644e-09  0.9994464654773306  1.0000
  Rh  Rh24      1.0  0.005000001277425038  0.002500003521789862  0.9994464654773306  1.0000
  Si  Si9       1.0  0.0049999937370689106  5.349999665131779e-09  0.9998751871315601  1.0000
  Si  Si10      1.0  0.007500001029036836  0.002500003521789862  0.9995870189741606  1.0000
  Si  Si11      1.0  0.005000001277425038  3.650000068035644e-09  0.9993059119805006  1.0000
  Si  Si12      1.0  0.007500001029036836  0.002500003521789862  0.9990248044225793  1.0000
  Mn  Mn13      1.0  0.007500001029036836  0.007500001916137557  0.999886793982936  1.0000
  Mn  Mn14      1.0  0.005000001277425038  0.005000003495176841  0.9995870189741606  1.0000
  Mn  Mn15      1.0  0.007500001029036836  0.007500003690338999  0.9993059119805006  1.0000
  Mn  Mn16      1.0  0.005000001277425038  0.005000003495176841  0.9990248044225793  1.0000
  Rh  Rh25      1.0  0.005000006600029363  0.0075000090129433246  0.9997206382660048  1.0000
  Rh  Rh26      1.0  0.007499986835425301  0.004999995954820712  0.9997206292378268  1.0000
  Rh  Rh27      1.0  0.007500014335547651  0.005000004382277562  0.9999999830721662  1.0000
  Rh  Rh28      1.0  0.004999998172572515  0.007500001029036836  0.0  1.0000
  Rh  Rh29      1.0  0.005000001277425038  0.007500003690338999  0.9991653579194094  1.0000
  Rh  Rh30      1.0  0.007500001029036836  0.005000003495176841  0.9991653579194094  1.0000
  Rh  Rh31      1.0  0.007500001029036836  0.005000003495176841  0.9994464654773306  1.0000
  Rh  Rh32      1.0  0.005000001277425038  0.007500003690338999  0.9994464654773306  1.0000
  Si  Si13      1.0  0.0049999937370689106  0.005000005269378283  0.9998751871315601  1.0000
  Si  Si14      1.0  0.007500001029036836  0.007500003690338999  0.9995870189741606  1.0000
  Si  Si15      1.0  0.005000001277425038  0.005000003495176841  0.9993059119805006  1.0000
  Si  Si16      1.0  0.007500001029036836  0.007500003690338999  0.9990248044225793  1.0000
