data_image0
_chemical_formula_structural       Fe8Si16CO
_chemical_formula_sum              "Fe8 Si16 C1 O1"
_cell_length_a       6.312941551208496
_cell_length_b       6.3129417157249845
_cell_length_c       38.58565139770508
_cell_angle_alpha    90.0
_cell_angle_beta     90.0
_cell_angle_gamma    103.59367596994102

_space_group_name_H-M_alt    "P 1"
_space_group_IT_number       1

loop_
  _space_group_symop_operation_xyz
  'x, y, z'

loop_
  _atom_site_type_symbol
  _atom_site_label
  _atom_site_symmetry_multiplicity
  _atom_site_fract_x
  _atom_site_fract_y
  _atom_site_fract_z
  _atom_site_occupancy
  Fe  Fe1       1.0  0.003167216355269504  0.0028725914678853384  0.9996341837304796  1.0000
  Fe  Fe2       1.0  0.0019218068883286217  0.0018976605779709686  0.9986200892626316  1.0000
  Fe  Fe3       1.0  0.007974862428570859  0.008027236886369386  0.999371584403337  1.0000
  Fe  Fe4       1.0  0.0069218066578014695  0.006897660626539827  0.9983664324121896  1.0000
  Fe  Fe5       1.0  0.00783159773913133  0.0021377904777139657  0.9990021017029219  1.0000
  Fe  Fe6       1.0  0.0069020605833906455  0.002776181069813421  0.9999685383618997  1.0000
  Fe  Fe7       1.0  0.0021619368127050237  0.007807451267173171  0.9990021017029219  1.0000
  Fe  Fe8       1.0  0.0029808530263800157  0.008281126343686608  0.0  1.0000
  Si  Si1       1.0  0.00828315094701813  0.0007895629091974886  0.998446097537152  1.0000
  Si  Si2       1.0  0.006726304195371209  0.004272771550526999  0.999455109823562  1.0000
  Si  Si3       1.0  0.005813709163924378  0.003259004697910249  0.9985404241376691  1.0000
  Si  Si4       1.0  0.009186290677766301  0.0017843485207441091  0.9995716651751108  1.0000
  Si  Si5       1.0  0.0015325682573516946  0.009210436808496023  0.9995345864907326  1.0000
  Si  Si6       1.0  0.003283151070152982  0.005789562730099823  0.9985404241376691  1.0000
  Si  Si7       1.0  0.004021904647587707  0.006689246191307837  0.99950375124308  1.0000
  Si  Si8       1.0  0.0008137090479338131  0.008259004442923743  0.998446097537152  1.0000
  Si  Si9       1.0  0.0009783306706535682  0.003516934477132538  0.9980857461574136  1.0000
  Si  Si10      1.0  0.004015203786580086  0.0014283075227411051  0.9991034282746204  1.0000
  Si  Si11      1.0  0.008541080768634687  0.005954184447078128  0.9989007755174075  1.0000
  Si  Si12      1.0  0.006653732523508081  0.00896953891368016  0.9999226006165647  1.0000
  Si  Si13      1.0  0.00909962822874097  0.006413687130721256  0.9999434699999169  1.0000
  Si  Si14      1.0  0.005978330617730338  0.008516934222146031  0.9989007755174075  1.0000
  Si  Si15      1.0  0.0014524537807847863  0.003991057601364373  0.9991034282746204  1.0000
  Si  Si16      1.0  0.00354108085163591  0.0009541843985092701  0.9980857461574136  1.0000
  C   C1        1.0  0.0035945604657555627  0.0047809186778189055  8.729496224764082e-05  1.0000
  O   O1        1.0  0.0035945604657555627  0.0047809186778189055  0.0003982916406203581  1.0000
