data_image0
_chemical_formula_structural       HNb6Pt12
_chemical_formula_sum              "H1 Nb6 Pt12"
_cell_length_a       7.554380696870119
_cell_length_b       4.960446146356885
_cell_length_c       99.09730529785156
_cell_angle_alpha    89.77035695294099
_cell_angle_beta     88.93481419275898
_cell_angle_gamma    96.6642967580424

_space_group_name_H-M_alt    "P 1"
_space_group_IT_number       1

loop_
  _space_group_symop_operation_xyz
  'x, y, z'

loop_
  _atom_site_type_symbol
  _atom_site_label
  _atom_site_symmetry_multiplicity
  _atom_site_fract_x
  _atom_site_fract_y
  _atom_site_fract_z
  _atom_site_occupancy
  H   H1        1.0  0.004253683278000745  0.0024954562031221485  7.136419149586358e-05  1.0000
  Nb  Nb1       1.0  0.005915181933956586  0.009090909502468483  0.999502927541012  1.0000
  Nb  Nb2       1.0  0.0013697273117584971  0.005000000238227699  0.9993694622348119  1.0000
  Nb  Nb3       1.0  0.004924376520793388  0.007147038359759055  0.999774232792835  1.0000
  Nb  Nb4       1.0  0.0004606364059404743  0.003181818409700995  0.9996363926794591  1.0000
  Nb  Nb5       1.0  0.004153599653432949  0.005275716997284857  1.981074617817627e-05  1.0000
  Nb  Nb6       1.0  0.009336729692446491  0.0011039288410321943  0.9998992554073476  1.0000
  Pt  Pt1       1.0  0.0049939090600036535  0.0056375307320915245  0.9992807832437028  1.0000
  Pt  Pt2       1.0  0.009539363433913808  0.00972843957691896  0.9994142485503389  1.0000
  Pt  Pt3       1.0  0.007745545682691549  0.004362469742910911  0.9994581408347931  1.0000
  Pt  Pt4       1.0  0.00320009106049346  0.00027156054907685176  0.999324675528579  1.0000
  Pt  Pt5       1.0  0.004084818185221622  0.0038193487213024034  0.9995477139890806  1.0000
  Pt  Pt6       1.0  0.008630273055707644  0.00791025784170273  0.9996811792949576  1.0000
  Pt  Pt7       1.0  0.0068364548079095176  0.0025442879198730576  0.9997250712793951  1.0000
  Pt  Pt8       1.0  0.0022909999374234958  0.008453379340196384  0.9995916062316684  1.0000
  Pt  Pt9       1.0  0.002974430599494354  0.0017463837017336014  0.9998294757855402  1.0000
  Pt  Pt10      1.0  0.007613581639170083  0.005887417462666733  0.9999483324568115  1.0000
  Pt  Pt11      1.0  0.005765902289950474  0.0005297458536843642  0.9999917225907698  1.0000
  Pt  Pt12      1.0  0.0012728027787130179  0.006420063876587405  0.9998751520438747  1.0000
