data_image0
_chemical_formula_structural       COPd4Sn16
_chemical_formula_sum              "C1 O1 Pd4 Sn16"
_cell_length_a       6.731076818417848
_cell_length_b       9.318666639620224
_cell_length_c       104.9513168334961
_cell_angle_alpha    82.60084584814118
_cell_angle_beta     89.18267770697506
_cell_angle_gamma    69.64806953859434

_space_group_name_H-M_alt    "P 1"
_space_group_IT_number       1

loop_
  _space_group_symop_operation_xyz
  'x, y, z'

loop_
  _atom_site_type_symbol
  _atom_site_label
  _atom_site_symmetry_multiplicity
  _atom_site_fract_x
  _atom_site_fract_y
  _atom_site_fract_z
  _atom_site_occupancy
  C   C1        1.0  0.007654693298742237  0.003787147294426317  0.9999496928887295  1.0000
  O   O1        1.0  0.007654693298742237  0.003787147294426317  6.403127986269032e-05  1.0000
  Pd  Pd1       1.0  0.008877778771338546  0.007445097500442403  0.999771915053806  1.0000
  Pd  Pd2       1.0  0.0012201848513038354  0.0024795625288993486  0.9993658659198489  1.0000
  Pd  Pd3       1.0  0.008829853658061045  0.002507081519054382  0.9997723319849225  1.0000
  Pd  Pd4       1.0  0.001220184840323554  0.007479562158968414  0.9993658659808816  1.0000
  Sn  Sn1       1.0  0.0006001725412920713  0.009389974115984133  0.9998855522984159  1.0000
  Sn  Sn2       1.0  0.0030405420902696024  0.004343511375620562  0.9994845343569441  1.0000
  Sn  Sn3       1.0  0.003832626620241775  0.00934909932863764  0.9993526428586164  1.0000
  Sn  Sn4       1.0  0.0014534901892574107  0.004302139762426018  0.9997709968195907  1.0000
  Sn  Sn5       1.0  0.00775238918697263  0.007320734463010871  0.9995215160751874  1.0000
  Sn  Sn6       1.0  0.005582971924867863  0.0022024380176073636  0.9999206925466577  1.0000
  Sn  Sn7       1.0  0.005467798670293523  0.008856596510693048  0.9999146760264673  1.0000
  Sn  Sn8       1.0  0.007755182850876203  0.0039049036234593943  0.9995210509923758  1.0000
  Sn  Sn9       1.0  0.008607743152493248  0.0006100253054610918  0.9993790892144525  1.0000
  Sn  Sn10      1.0  0.006299232105398497  0.005595515523774852  0.9997940345338464  1.0000
  Sn  Sn11      1.0  0.009399828107181341  0.005615613527323326  0.9992471977126622  1.0000
  Sn  Sn12      1.0  0.0068815768217608386  0.0006276482129665479  0.9996621079476745  1.0000
  Sn  Sn13      1.0  0.004685186999130906  0.006054220849332244  0.9992106810824669  1.0000
  Sn  Sn14      1.0  0.002185187065461459  0.0010542212192631785  0.9996269610972175  1.0000
  Sn  Sn15      1.0  0.0046879813195666465  0.0026383897947046425  0.9992102157175508  1.0000
  Sn  Sn16      1.0  0.002187981157877748  0.007638389854925957  0.9996264955656733  1.0000
