data_image0
_chemical_formula_structural       COCa8Cu8Ga4
_chemical_formula_sum              "C1 O1 Ca8 Cu8 Ga4"
_cell_length_a       5.783783736461295
_cell_length_b       5.783783735267698
_cell_length_c       104.15999603271484
_cell_angle_alpha    92.03231570375132
_cell_angle_beta     92.03231570333172
_cell_angle_gamma    104.82220483231661

_space_group_name_H-M_alt    "P 1"
_space_group_IT_number       1

loop_
  _space_group_symop_operation_xyz
  'x, y, z'

loop_
  _atom_site_type_symbol
  _atom_site_label
  _atom_site_symmetry_multiplicity
  _atom_site_fract_x
  _atom_site_fract_y
  _atom_site_fract_z
  _atom_site_occupancy
  C   C1        1.0  0.0021533771542606673  0.009150220960760128  2.385725017273966e-05  1.0000
  O   O1        1.0  0.0021533771542606673  0.009150220960760128  0.0001390648613071148  1.0000
  Ca  Ca1       1.0  0.0022698245438374453  0.006190491058226345  0.9988303421224616  1.0000
  Ca  Ca2       1.0  0.0062698246670571615  0.0001904912414767964  0.9991582990729816  1.0000
  Ca  Ca3       1.0  0.006190492864326225  0.002269823299529718  0.9988303421235678  1.0000
  Ca  Ca4       1.0  0.00019049256802059812  0.006269823330210413  0.9991582990729613  1.0000
  Ca  Ca5       1.0  0.0002698246178031446  0.004190491293000354  0.9994862560229025  1.0000
  Ca  Ca6       1.0  0.0042113473958298505  0.008205032805612585  0.9998175965028326  1.0000
  Ca  Ca7       1.0  0.004190492782619856  0.0002698232425036446  0.9994862560231277  1.0000
  Ca  Ca8       1.0  0.008205031804197937  0.004211346828484866  0.9998175964997434  1.0000
  Cu  Cu1       1.0  0.001669347273632646  0.001669345918330062  0.9992436121635999  1.0000
  Cu  Cu2       1.0  0.007669347303977438  0.007669345880979652  0.99891565519078  1.0000
  Cu  Cu3       1.0  0.008790970269887295  0.008790968704880706  0.9994009429100786  1.0000
  Cu  Cu4       1.0  0.0047909700850145955  0.0047909685074571055  0.999072985982299  1.0000
  Cu  Cu5       1.0  0.009809507311940302  0.009809508397524817  0.9998969799130962  1.0000
  Cu  Cu6       1.0  0.005669347297380931  0.005669346115753661  0.9995715690910623  1.0000
  Cu  Cu7       1.0  0.006871235206582452  0.006871238306760331  2.706159981201757e-05  1.0000
  Cu  Cu8       1.0  0.0027909700354981676  0.0027909685754882105  0.9997288998821684  1.0000
  Ga  Ga1       1.0  0.0012301586298071926  0.0012301572809246886  0.9989943206094725  1.0000
  Ga  Ga2       1.0  0.0052301586911977635  0.005230157311605383  0.9993222775366806  1.0000
  Ga  Ga3       1.0  0.009230158553821635  0.009230157509028981  0.9996502344638257  1.0000
  Ga  Ga4       1.0  0.003305109615049344  0.0033051244891317564  0.9999671929013612  1.0000
