data_image0
_chemical_formula_structural       Sb16Rh8H
_chemical_formula_sum              "Sb16 Rh8 H1"
_cell_length_a       6.821044542888324
_cell_length_b       9.49462984677545
_cell_length_c       107.978515625
_cell_angle_alpha    90.47787512013534
_cell_angle_beta     108.38206734545827
_cell_angle_gamma    71.61793316841568

_space_group_name_H-M_alt    "P 1"
_space_group_IT_number       1

loop_
  _space_group_symop_operation_xyz
  'x, y, z'

loop_
  _atom_site_type_symbol
  _atom_site_label
  _atom_site_symmetry_multiplicity
  _atom_site_fract_x
  _atom_site_fract_y
  _atom_site_fract_z
  _atom_site_occupancy
  Sb  Sb1       1.0  0.008987485771754507  0.0029359766730085815  0.00013860381034429465  1.0000
  Sb  Sb2       1.0  0.008081593035246918  0.008034370777974564  0.999720575890101  1.0000
  Sb  Sb3       1.0  0.006588658073037333  0.007087349094923287  0.9993641944058432  1.0000
  Sb  Sb4       1.0  0.0065886580694588925  0.0020873494357041412  0.9998038477134451  1.0000
  Sb  Sb5       1.0  0.001382404730050702  0.006320767965248518  0.00014581491701628522  1.0000
  Sb  Sb6       1.0  0.0015886581006418917  0.0009727913650373764  0.9997058441045011  1.0000
  Sb  Sb7       1.0  0.00317937827397803  0.0017199532847298046  6.64560830993237e-05  1.0000
  Sb  Sb8       1.0  0.0030815926782336257  0.006919812915101003  0.9996225717215717  1.0000
  Sb  Sb9       1.0  0.006103954627149212  0.003441017847514551  0.9994872519608052  1.0000
  Sb  Sb10      1.0  0.00611981703250213  0.008510545528375362  0.9999348240662144  1.0000
  Sb  Sb11      1.0  0.008566296778017122  0.004433855230734106  0.9998396044330035  1.0000
  Sb  Sb12      1.0  0.008566296306523478  0.009433854682160047  0.9993999511157854  1.0000
  Sb  Sb13      1.0  0.00360825488512881  0.005537373040679645  0.9999501763768767  1.0000
  Sb  Sb14      1.0  0.0035662961671849465  0.0005661447401748458  0.9994995143293525  1.0000
  Sb  Sb15      1.0  0.0011039547325036089  0.004573307327864242  0.9995868150173619  1.0000
  Sb  Sb16      1.0  0.0010125145251012216  0.009329436934809135  2.701220769463126e-05  1.0000
  Rh  Rh1       1.0  0.006962172954736303  0.005858465489146133  0.9995936110560811  1.0000
  Rh  Rh2       1.0  0.007072641371838029  0.0009694103618152452  2.8823218490357447e-05  1.0000
  Rh  Rh3       1.0  0.007763924138646623  0.005706125226331682  3.804405942525799e-05  1.0000
  Rh  Rh4       1.0  0.007708077926451483  0.0006434355522794934  0.9996125188202059  1.0000
  Rh  Rh5       1.0  0.002708077792956214  0.0031486968616590114  0.9998328083789355  1.0000
  Rh  Rh6       1.0  0.002708077595654323  0.008148696936464564  0.9993931547916344  1.0000
  Rh  Rh7       1.0  0.001962173418284888  0.0033637270873582044  0.9993742469289498  1.0000
  Rh  Rh8       1.0  0.001962173220982997  0.008363727162163758  0.9998139006230408  1.0000
  H   H1        1.0  0.008566166170150007  0.008919991231592247  0.00011983481174100157  1.0000
