data_image0
_chemical_formula_structural       COV3Pt3V3Pt3V3Pt3V3Pt3
_chemical_formula_sum              "C1 O1 V12 Pt12"
_cell_length_a       7.852696895599365
_cell_length_b       6.0600917351967825
_cell_length_c       100.66191101074219
_cell_angle_alpha    71.56505188990398
_cell_angle_beta     90.0
_cell_angle_gamma    90.0

_space_group_name_H-M_alt    "P 1"
_space_group_IT_number       1

loop_
  _space_group_symop_operation_xyz
  'x, y, z'

loop_
  _atom_site_type_symbol
  _atom_site_label
  _atom_site_symmetry_multiplicity
  _atom_site_fract_x
  _atom_site_fract_y
  _atom_site_fract_z
  _atom_site_occupancy
  C   C1        1.0  0.0025000003890049607  0.007374655385036088  1.0721614093214257e-05  1.0000
  O   O1        1.0  0.0025000003890049607  0.007374655385036088  0.0001299321932840833  1.0000
  V   V1        1.0  0.002500000626203107  0.00833333298774554  0.9992686011668287  1.0000
  V   V2        1.0  0.002500000626203107  0.004999999727849613  0.9995224369513196  1.0000
  V   V3        1.0  0.002500000626203107  0.0016666666299479638  0.9993955190242867  1.0000
  Pt  Pt1       1.0  5.000000167837089e-10  0.00833333298774554  0.9994589780210487  1.0000
  Pt  Pt2       1.0  5.000000167837089e-10  0.004999999727849613  0.9993320600970997  1.0000
  Pt  Pt3       1.0  5.000000167837089e-10  0.0016666666299479638  0.9995858958785067  1.0000
  V   V4        1.0  0.002500000626203107  0.00833333298774554  0.9996493548752686  1.0000
  V   V5        1.0  0.0025000020493919865  0.00493721495745994  0.9998832129515561  1.0000
  V   V6        1.0  0.0024999987286179345  0.0017175140419750658  0.9997754829462481  1.0000
  Pt  Pt4       1.0  0.00999999965843467  0.008159714000112634  0.9998446579800483  1.0000
  Pt  Pt5       1.0  0.00999999965843467  0.004961397463313713  0.9997096341508659  1.0000
  Pt  Pt6       1.0  1.0000000335674178e-09  0.0017442518455735969  0.9999592859129791  1.0000
  V   V7        1.0  0.0075000009298167355  0.00833333298774554  0.9992686011668287  1.0000
  V   V8        1.0  0.0075000009298167355  0.004999999727849613  0.9995224369513196  1.0000
  V   V9        1.0  0.0075000009298167355  0.0016666666299479638  0.9993955190242867  1.0000
  Pt  Pt7       1.0  0.005000000778009921  0.00833333298774554  0.9994589780210487  1.0000
  Pt  Pt8       1.0  0.005000000778009921  0.004999999727849613  0.9993320600970997  1.0000
  Pt  Pt9       1.0  0.005000000778009921  0.0016666666299479638  0.9995858958785067  1.0000
  V   V10       1.0  0.0075000009298167355  0.00833333298774554  0.9996493548752686  1.0000
  V   V11       1.0  0.007500001878609322  0.00493721495745994  0.9998832129515561  1.0000
  V   V12       1.0  0.007499999032231562  0.0017175140419750658  0.9997754829462481  1.0000
  Pt  Pt10      1.0  0.004999999829217335  0.008159714000112634  0.9998446579800483  1.0000
  Pt  Pt11      1.0  0.004999999829217335  0.004961397463313713  0.9997096341508659  1.0000
  Pt  Pt12      1.0  0.005000001252406214  0.0017442518455735969  0.9999592859129791  1.0000
