data_image0
_chemical_formula_structural       HFe2Sb4Fe2Sb4Fe2Sb4
_chemical_formula_sum              "H1 Fe6 Sb12"
_cell_length_a       6.535303115844727
_cell_length_b       6.6592032271949675
_cell_length_c       33.876155853271484
_cell_angle_alpha    60.452171456157686
_cell_angle_beta     90.0
_cell_angle_gamma    90.0

_space_group_name_H-M_alt    "P 1"
_space_group_IT_number       1

loop_
  _space_group_symop_operation_xyz
  'x, y, z'

loop_
  _atom_site_type_symbol
  _atom_site_label
  _atom_site_symmetry_multiplicity
  _atom_site_fract_x
  _atom_site_fract_y
  _atom_site_fract_z
  _atom_site_occupancy
  H   H1        1.0  0.009782571292057129  0.008846545037705303  0.999921886799949  1.0000
  Fe  Fe1       1.0  0.00023792039840787917  0.009942501877918892  0.9990160722920465  1.0000
  Fe  Fe2       1.0  0.005196829075998845  0.004940729741152566  0.9990160117092047  1.0000
  Sb  Sb1       1.0  0.006570140532386795  0.007965007602011576  0.9992278648586963  1.0000
  Sb  Sb2       1.0  0.0029950027471587364  0.0026769541470996958  0.9997356493033771  1.0000
  Sb  Sb3       1.0  0.0024373669058548944  0.007669677410738766  0.9997359871073224  1.0000
  Sb  Sb4       1.0  0.008863975553762117  0.0029632000973612255  0.9992279911309354  1.0000
  Fe  Fe3       1.0  0.00021742829752441424  5.749835277616952e-05  0.998046264348923  1.0000
  Fe  Fe4       1.0  0.0052174280923151855  0.005057498417885229  0.9980462640259036  1.0000
  Sb  Sb5       1.0  0.006665583914376422  0.008092728747847472  0.9982367307226866  1.0000
  Sb  Sb6       1.0  0.0037692728402795835  0.002022268409449204  0.9988252067148481  1.0000
  Sb  Sb7       1.0  0.0016655838345728334  0.007022268293699765  0.998825206849233  1.0000
  Sb  Sb8       1.0  0.008769273205095988  0.003092728542070692  0.9982367306194707  1.0000
  Fe  Fe5       1.0  0.00021742829752441424  5.749835277616952e-05  0.9970768549320264  1.0000
  Fe  Fe6       1.0  0.0052174280923151855  0.005057498417885229  0.9970768550488787  1.0000
  Sb  Sb9       1.0  0.006665583914376422  0.008092728747847472  0.99726732130579  1.0000
  Sb  Sb10      1.0  0.0037692728402795835  0.002022268409449204  0.9978557972979515  1.0000
  Sb  Sb11      1.0  0.0016655838345728334  0.007022268293699765  0.9978557974323364  1.0000
  Sb  Sb12      1.0  0.008769273205095988  0.003092728542070692  0.9972673216424458  1.0000
