data_image0
_chemical_formula_structural       HTi4Al4Au4Ti4Al4Au4Ti4Al4Au4Ti4Al4Au4
_chemical_formula_sum              "H1 Ti16 Al16 Au16"
_cell_length_a       12.426006847837845
_cell_length_b       8.96271903043613
_cell_length_c       105.85087585449219
_cell_angle_alpha    60.000000246594695
_cell_angle_beta     68.86027482857412
_cell_angle_gamma    79.61149662471794

_space_group_name_H-M_alt    "P 1"
_space_group_IT_number       1

loop_
  _space_group_symop_operation_xyz
  'x, y, z'

loop_
  _atom_site_type_symbol
  _atom_site_label
  _atom_site_symmetry_multiplicity
  _atom_site_fract_x
  _atom_site_fract_y
  _atom_site_fract_z
  _atom_site_occupancy
  H   H1        1.0  0.0027410479910831838  0.0014956308067733616  0.9995857663068909  1.0000
  Ti  Ti1       1.0  0.0004557429693563433  3.284204917566172e-05  0.9991307163091951  1.0000
  Ti  Ti2       1.0  0.005533616523618323  7.239494703450253e-05  0.9993324974184143  1.0000
  Ti  Ti3       1.0  0.003094082917982142  0.0001821301532320317  0.9994171343437738  1.0000
  Ti  Ti4       1.0  0.007886410630894953  0.009967157765896281  0.9992507452233189  1.0000
  Al  Al1       1.0  0.0018114420645773868  0.0032894430310057643  0.9993686072256862  1.0000
  Al  Al2       1.0  0.006705742752391883  0.0033661753658609703  0.9991483563399608  1.0000
  Al  Al3       1.0  0.004205742919534875  0.0016995088143806356  0.9991130757006331  1.0000
  Al  Al4       1.0  0.009191245180727552  0.0016844062064730048  0.9993278797234966  1.0000
  Au  Au1       1.0  0.004278444335171214  0.003229224336623485  0.9992742055184615  1.0000
  Au  Au2       1.0  0.009544256321893086  0.003417001094823047  0.9994428435248006  1.0000
  Au  Au3       1.0  0.0017105532691194302  0.001679409879342778  0.9992222570528887  1.0000
  Au  Au4       1.0  0.006886918041017487  0.0016902425539254793  0.9994246470345414  1.0000
  Ti  Ti5       1.0  0.0004557429693563433  3.284204917566172e-05  0.998707350864167  1.0000
  Ti  Ti6       1.0  0.005455742675248964  3.284204917566172e-05  0.9989190336385495  1.0000
  Ti  Ti7       1.0  0.0029557428423919556  3.284204917566172e-05  0.9990248749730218  1.0000
  Ti  Ti8       1.0  0.007955742829534802  3.284204917566172e-05  0.998813192290469  1.0000
  Al  Al5       1.0  0.0017057429259634512  0.0033661753658609703  0.9989366738522314  1.0000
  Al  Al6       1.0  0.006705742752391883  0.0033661753658609703  0.9987249911764827  1.0000
  Al  Al7       1.0  0.004205742919534875  0.0016995088143806356  0.9986897105371549  1.0000
  Al  Al8       1.0  0.009205742906677722  0.0016995088143806356  0.9989013930180803  1.0000
  Au  Au5       1.0  0.004205742919534875  0.0033661753658609703  0.998830832510955  1.0000
  Au  Au6       1.0  0.009205742906677722  0.0033661753658609703  0.9990425149918803  1.0000
  Au  Au7       1.0  0.0017057429259634512  0.0016995088143806356  0.9987955518784314  1.0000
  Au  Au8       1.0  0.006705742752391883  0.0016995088143806356  0.9990072343661608  1.0000
  Ti  Ti9       1.0  0.0004557429693563433  0.0050328421573128295  0.9991307159217089  1.0000
  Ti  Ti10      1.0  0.005533616523618323  0.0050723952239016485  0.9993324975868848  1.0000
  Ti  Ti11      1.0  0.003094082917982142  0.0051821303626071865  0.9994171345151016  1.0000
  Ti  Ti12      1.0  0.007886410630894953  0.0049671581114552775  0.9992507455915973  1.0000
  Al  Al9       1.0  0.0018114420645773868  0.008289442925418293  0.9993686068472484  1.0000
  Al  Al10      1.0  0.006705742752391883  0.008366175260273499  0.9991483565246231  1.0000
  Al  Al11      1.0  0.004205742919534875  0.006699508708793164  0.9991130758852954  1.0000
  Al  Al12      1.0  0.009191245180727552  0.006684406340857058  0.9993278798979993  1.0000
  Au  Au9       1.0  0.004278444335171214  0.008229224471007539  0.9992742056929642  1.0000
  Au  Au10      1.0  0.009544256321893086  0.0084170012292071  0.9994428436993033  1.0000
  Au  Au11      1.0  0.0017105532691194302  0.006679410133712593  0.9992222572223116  1.0000
  Au  Au12      1.0  0.006886918041017487  0.006690242448338008  0.9994246466561034  1.0000
  Ti  Ti13      1.0  0.0004557429693563433  0.0050328421573128295  0.9987073507582307  1.0000
  Ti  Ti14      1.0  0.005455742675248964  0.0050328421573128295  0.9989190332510632  1.0000
  Ti  Ti15      1.0  0.0029557428423919556  0.0050328421573128295  0.9990248745855356  1.0000
  Ti  Ti16      1.0  0.007955742829534802  0.0050328421573128295  0.9988131919029828  1.0000
  Al  Al13      1.0  0.0017057429259634512  0.008366175260273499  0.9989366734737934  1.0000
  Al  Al14      1.0  0.006705742752391883  0.008366175260273499  0.9987249907980448  1.0000
  Al  Al15      1.0  0.004205742919534875  0.006699508708793164  0.9986897107218172  1.0000
  Al  Al16      1.0  0.009205742906677722  0.006699508708793164  0.9989013932027426  1.0000
  Au  Au13      1.0  0.004205742919534875  0.008366175260273499  0.9988308321325171  1.0000
  Au  Au14      1.0  0.009205742906677722  0.008366175260273499  0.9990425151765426  1.0000
  Au  Au15      1.0  0.0017057429259634512  0.006699508708793164  0.9987955520630936  1.0000
  Au  Au16      1.0  0.006705742752391883  0.006699508708793164  0.9990072345508231  1.0000
