data_image0
_chemical_formula_structural       HIn2As2Pt10In2As2Pt10
_chemical_formula_sum              "H1 In4 As4 Pt20"
_cell_length_a       5.774239540100098
_cell_length_b       8.274114874786882
_cell_length_c       104.64543914794922
_cell_angle_alpha    110.42212595608605
_cell_angle_beta     90.0
_cell_angle_gamma    69.57787404391395

_space_group_name_H-M_alt    "P 1"
_space_group_IT_number       1

loop_
  _space_group_symop_operation_xyz
  'x, y, z'

loop_
  _atom_site_type_symbol
  _atom_site_label
  _atom_site_symmetry_multiplicity
  _atom_site_fract_x
  _atom_site_fract_y
  _atom_site_fract_z
  _atom_site_occupancy
  H   H1        1.0  0.007645974587298411  0.0023552834162425024  0.00010853178645056782  1.0000
  In  In1       1.0  1.3223551148220077e-05  3.537629955883642e-05  0.9991933152514035  1.0000
  In  In2       1.0  0.005013223818989126  3.537629955883642e-05  0.9994692104921526  1.0000
  As  As1       1.0  0.007513223803203106  0.0050353761762932285  0.9990553674339687  1.0000
  As  As2       1.0  0.0025132238806219297  0.0050353761762932285  0.9993312629595111  1.0000
  Pt  Pt1       1.0  0.001087840135072236  0.0028861434222330067  0.999134018706359  1.0000
  Pt  Pt2       1.0  0.006087840541521062  0.0028861434222330067  0.9994099142319014  1.0000
  Pt  Pt3       1.0  0.008938606935472437  0.007184609189178875  0.9992526114094684  1.0000
  Pt  Pt4       1.0  0.00393860701289126  0.007184609189178875  0.9989767161687194  1.0000
  Pt  Pt5       1.0  0.006087840541521062  0.0028861434222330067  0.999134018706359  1.0000
  Pt  Pt6       1.0  0.001087840135072236  0.0028861434222330067  0.9994099142319014  1.0000
  Pt  Pt7       1.0  0.00393860701289126  0.007184609189178875  0.9992526114094684  1.0000
  Pt  Pt8       1.0  0.008938606935472437  0.007184609189178875  0.9989767161687194  1.0000
  Pt  Pt9       1.0  1.3223551148220077e-05  3.537629955883642e-05  0.9994692104921526  1.0000
  Pt  Pt10      1.0  0.005013223818989126  3.537629955883642e-05  0.9991933152514035  1.0000
  In  In3       1.0  5.141790417605651e-05  0.009956215890121923  0.9997381168827532  1.0000
  In  In4       1.0  0.004945769062832608  0.00017028129577379412  2.243149367089521e-05  1.0000
  As  As3       1.0  0.007513223803203106  0.0050353761762932285  0.9996071582002601  1.0000
  As  As4       1.0  0.002528876787967676  0.005005743253361219  0.9998882962841492  1.0000
  Pt  Pt11      1.0  0.001087840135072236  0.0028861434222330067  0.9996858094726504  1.0000
  Pt  Pt12      1.0  0.006201305587361834  0.0028276302407054922  0.9999534449940956  1.0000
  Pt  Pt13      1.0  0.00895763235979283  0.007115944356823872  0.999810802065212  1.0000
  Pt  Pt14      1.0  0.00393860701289126  0.007184609189178875  0.9995285069350108  1.0000
  Pt  Pt15      1.0  0.006087840541521062  0.0028861434222330067  0.9996858094726504  1.0000
  Pt  Pt16      1.0  0.0010333945205708009  0.002828465470352637  0.9999534031048216  1.0000
  Pt  Pt17      1.0  0.003988056892073609  0.0071163698658229125  0.999810800134731  1.0000
  Pt  Pt18      1.0  0.008938606935472437  0.007184609189178875  0.9995285069350108  1.0000
  Pt  Pt19      1.0  0.00998677658568856  9.066930455863135e-05  2.5015246135841143e-06  1.0000
  Pt  Pt20      1.0  0.005046900115384587  0.009964623575234364  0.999740198294779  1.0000
