data_image0
_chemical_formula_structural       COZn3Ag3Zn3Ag3
_chemical_formula_sum              "C1 O1 Zn6 Ag6"
_cell_length_a       4.568461894989014
_cell_length_b       4.568461820022998
_cell_length_c       103.57120513916016
_cell_angle_alpha    90.0
_cell_angle_beta     90.0
_cell_angle_gamma    59.99999945717926

_space_group_name_H-M_alt    "P 1"
_space_group_IT_number       1

loop_
  _space_group_symop_operation_xyz
  'x, y, z'

loop_
  _atom_site_type_symbol
  _atom_site_label
  _atom_site_symmetry_multiplicity
  _atom_site_fract_x
  _atom_site_fract_y
  _atom_site_fract_z
  _atom_site_occupancy
  C   C1        1.0  0.008333327236331357  0.00833333345887799  0.00010571831456945472  1.0000
  O   O1        1.0  0.008333327236331357  0.00833333345887799  0.00022158029278943316  1.0000
  Zn  Zn1       1.0  0.008333332944386429  0.00833333345887799  0.9993926384993943  1.0000
  Zn  Zn2       1.0  0.0016666665834148984  0.0016666666211567292  0.9992125625723511  1.0000
  Zn  Zn3       1.0  0.004999999487536529  0.004999999981168302  0.9990324869330551  1.0000
  Ag  Ag1       1.0  0.008333332944386429  0.00833333345887799  0.9991225247527031  1.0000
  Ag  Ag2       1.0  0.0016666665834148984  0.0016666666211567292  0.9994826766067895  1.0000
  Ag  Ag3       1.0  0.004999999487536529  0.004999999981168302  0.9993026006797463  1.0000
  Zn  Zn4       1.0  0.008333327236331357  0.00833333345887799  0.9999384854074886  1.0000
  Zn  Zn5       1.0  0.0016666870740449612  0.001666680274138004  0.9997427413586528  1.0000
  Zn  Zn6       1.0  0.004999999487536529  0.004999999981168302  0.9995727144264375  1.0000
  Ag  Ag4       1.0  0.008333332944386429  0.00833333345887799  0.9996627522460855  1.0000
  Ag  Ag5       1.0  0.0016666771015458317  0.0016666883953079  0.0  1.0000
  Ag  Ag6       1.0  0.004999995519602087  0.005000001393545675  0.9998573959496982  1.0000
