data_image0
_chemical_formula_structural       COGe8Re4Ge8Re4
_chemical_formula_sum              "C1 O1 Ge16 Re8"
_cell_length_a       7.006610391885917
_cell_length_b       6.444167895324594
_cell_length_c       106.54862213134766
_cell_angle_alpha    92.52638321804008
_cell_angle_beta     92.53776680708334
_cell_angle_gamma    76.70694838557043

_space_group_name_H-M_alt    "P 1"
_space_group_IT_number       1

loop_
  _space_group_symop_operation_xyz
  'x, y, z'

loop_
  _atom_site_type_symbol
  _atom_site_label
  _atom_site_symmetry_multiplicity
  _atom_site_fract_x
  _atom_site_fract_y
  _atom_site_fract_z
  _atom_site_occupancy
  C   C1        1.0  0.009404159344960318  0.0018396942448593056  0.00015142647796790115  1.0000
  O   O1        1.0  0.009404159344960318  0.0018396942448593056  0.0002640513442369558  1.0000
  Ge  Ge1       1.0  0.005815780874020189  0.002638502506406642  2.3967993744989054e-05  1.0000
  Ge  Ge2       1.0  0.004771144328736236  9.60781642912951e-05  0.9996009325683864  1.0000
  Ge  Ge3       1.0  0.006167598441483272  0.004903921710855185  0.999825298971736  1.0000
  Ge  Ge4       1.0  0.004924323657485416  0.0024063710241953745  0.9993931806175755  1.0000
  Ge  Ge5       1.0  0.009099627615443655  0.0015363063731506723  0.9996315973788309  1.0000
  Ge  Ge6       1.0  0.007849627309315687  0.004036306368169825  0.9992028184923503  1.0000
  Ge  Ge7       1.0  0.000595840575774404  0.000966142836754184  0.9993625158077851  1.0000
  Ge  Ge8       1.0  0.001820810752241084  0.0034645449147648368  0.9997820008252896  1.0000
  Re  Re1       1.0  0.009097787021034804  0.0017168664327362059  0.9998819507009296  1.0000
  Re  Re2       1.0  0.007813680779305944  0.004225266398651763  0.9994497580057857  1.0000
  Re  Re3       1.0  0.002814028868672081  0.0008481841315664174  0.9999532487552946  1.0000
  Re  Re4       1.0  0.0018817870702514355  0.0032771831362476524  0.9995443547751276  1.0000
  Ge  Ge9       1.0  0.005815780874020189  0.007638502818877386  2.3968148416498785e-05  1.0000
  Ge  Ge10      1.0  0.004771144328736236  0.005096078476762039  0.9996009321636453  1.0000
  Ge  Ge11      1.0  0.006167598441483272  0.009903921734001167  0.9998252991256362  1.0000
  Ge  Ge12      1.0  0.004924323657485416  0.007406371047341356  0.9993931807714758  1.0000
  Ge  Ge13      1.0  0.009099627615443655  0.006536306685621417  0.9996315969740898  1.0000
  Ge  Ge14      1.0  0.007849627309315687  0.009036306969965331  0.9992028183680868  1.0000
  Ge  Ge15      1.0  0.000595840575774404  0.005966142787568975  0.9993625156817861  1.0000
  Ge  Ge16      1.0  0.001820810752241084  0.008464544937910818  0.9997820009791898  1.0000
  Re  Re5       1.0  0.009097787021034804  0.006716866166557425  0.9998819502946458  1.0000
  Re  Re6       1.0  0.007813680779305944  0.009225266421797744  0.9994497578799796  1.0000
  Re  Re7       1.0  0.002814028868672081  0.0058481844440371605  0.9999532489099661  1.0000
  Re  Re8       1.0  0.0018817870702514355  0.008277183159393634  0.9995443549290278  1.0000
