data_image0
_chemical_formula_structural       COAl3Ni9Al3Ni9Al3Ni9Al3Ni9
_chemical_formula_sum              "C1 O1 Al12 Ni36"
_cell_length_a       8.04284547668389
_cell_length_b       7.193739891052246
_cell_length_c       105.60719299316406
_cell_angle_alpha    90.0
_cell_angle_beta     108.4349498971167
_cell_angle_gamma    90.0

_space_group_name_H-M_alt    "P 1"
_space_group_IT_number       1

loop_
  _space_group_symop_operation_xyz
  'x, y, z'

loop_
  _atom_site_type_symbol
  _atom_site_label
  _atom_site_symmetry_multiplicity
  _atom_site_fract_x
  _atom_site_fract_y
  _atom_site_fract_z
  _atom_site_occupancy
  C   C1        1.0  0.00905117678916117  0.002499999937857798  0.00019295008790721585  1.0000
  O   O1        1.0  0.00905117678916117  0.002499999937857798  0.0003065783775524775  1.0000
  Al  Al1       1.0  0.007500000136705874  0.001249999968928899  0.9998193753281155  1.0000
  Al  Al2       1.0  0.004166666634117649  0.001249999968928899  0.9999799308191314  1.0000
  Al  Al3       1.0  0.0008333333756470562  0.001249999968928899  0.9996588198984782  1.0000
  Ni  Ni1       1.0  0.005833333385411761  0.0037499999067866973  0.9998996527914237  1.0000
  Ni  Ni2       1.0  0.0025000001269411686  0.0037499999067866973  6.020828831871235e-05  1.0000
  Ni  Ni3       1.0  0.009166666887999986  0.0037499999067866973  0.9997390973004079  1.0000
  Ni  Ni4       1.0  0.009166666887999986  0.0037499999067866973  0.999979930509182  1.0000
  Ni  Ni5       1.0  0.005833333385411761  0.0037499999067866973  0.9996588195826496  1.0000
  Ni  Ni6       1.0  0.0025000001269411686  0.0037499999067866973  0.9998193750795445  1.0000
  Ni  Ni7       1.0  0.007500000136705874  0.001249999968928899  6.020853688964987e-05  1.0000
  Ni  Ni8       1.0  0.004166666634117649  0.001249999968928899  0.9997390976103573  1.0000
  Ni  Ni9       1.0  0.0008333333756470562  0.001249999968928899  0.9998996531072523  1.0000
  Al  Al4       1.0  0.007500000136705874  0.001249999968928899  0.9993377089105673  1.0000
  Al  Al5       1.0  0.004166666634117649  0.001249999968928899  0.9994982644015831  1.0000
  Al  Al6       1.0  0.0008333333756470562  0.001249999968928899  0.9991771534809298  1.0000
  Ni  Ni10      1.0  0.005833333385411761  0.0037499999067866973  0.9994179866560752  1.0000
  Ni  Ni11      1.0  0.0025000001269411686  0.0037499999067866973  0.9995785418707704  1.0000
  Ni  Ni12      1.0  0.009166666887999986  0.0037499999067866973  0.9992574311650594  1.0000
  Ni  Ni13      1.0  0.009166666887999986  0.0037499999067866973  0.9994982643738335  1.0000
  Ni  Ni14      1.0  0.005833333385411761  0.0037499999067866973  0.9991771534473011  1.0000
  Ni  Ni15      1.0  0.0025000001269411686  0.0037499999067866973  0.999337708944196  1.0000
  Ni  Ni16      1.0  0.007500000136705874  0.001249999968928899  0.9995785421193414  1.0000
  Ni  Ni17      1.0  0.004166666634117649  0.001249999968928899  0.999257431192809  1.0000
  Ni  Ni18      1.0  0.0008333333756470562  0.001249999968928899  0.9994179866897039  1.0000
  Al  Al7       1.0  0.007500000136705874  0.006250000103570336  0.9998193753281155  1.0000
  Al  Al8       1.0  0.004166666634117649  0.006250000103570336  0.9999799308191314  1.0000
  Al  Al9       1.0  0.0008333333756470562  0.006250000103570336  0.9996588198984782  1.0000
  Ni  Ni19      1.0  0.005833333385411761  0.008750000041428134  0.9998996527914237  1.0000
  Ni  Ni20      1.0  0.0025000001269411686  0.008750000041428134  6.020828831871235e-05  1.0000
  Ni  Ni21      1.0  0.009166666887999986  0.008750000041428134  0.9997390973004079  1.0000
  Ni  Ni22      1.0  0.009166666887999986  0.008750000041428134  0.999979930509182  1.0000
  Ni  Ni23      1.0  0.005833333385411761  0.008750000041428134  0.9996588195826496  1.0000
  Ni  Ni24      1.0  0.0025000001269411686  0.008750000041428134  0.9998193750795445  1.0000
  Ni  Ni25      1.0  0.007500000136705874  0.006250000103570336  6.020853688964987e-05  1.0000
  Ni  Ni26      1.0  0.004166666634117649  0.006250000103570336  0.9997390976103573  1.0000
  Ni  Ni27      1.0  0.0008333333756470562  0.006250000103570336  0.9998996531072523  1.0000
  Al  Al10      1.0  0.007500000136705874  0.006250000103570336  0.9993377089105673  1.0000
  Al  Al11      1.0  0.004166666634117649  0.006250000103570336  0.9994982644015831  1.0000
  Al  Al12      1.0  0.0008333333756470562  0.006250000103570336  0.9991771534809298  1.0000
  Ni  Ni28      1.0  0.005833333385411761  0.008750000041428134  0.9994179866560752  1.0000
  Ni  Ni29      1.0  0.0025000001269411686  0.008750000041428134  0.9995785418707704  1.0000
  Ni  Ni30      1.0  0.009166666887999986  0.008750000041428134  0.9992574311650594  1.0000
  Ni  Ni31      1.0  0.009166666887999986  0.008750000041428134  0.9994982643738335  1.0000
  Ni  Ni32      1.0  0.005833333385411761  0.008750000041428134  0.9991771534473011  1.0000
  Ni  Ni33      1.0  0.0025000001269411686  0.008750000041428134  0.999337708944196  1.0000
  Ni  Ni34      1.0  0.007500000136705874  0.006250000103570336  0.9995785421193414  1.0000
  Ni  Ni35      1.0  0.004166666634117649  0.006250000103570336  0.999257431192809  1.0000
  Ni  Ni36      1.0  0.0008333333756470562  0.006250000103570336  0.9994179866897039  1.0000
