data_image0
_chemical_formula_structural       COAl12Fe4Al12Fe4
_chemical_formula_sum              "C1 O1 Al24 Fe8"
_cell_length_a       5.404006486510484
_cell_length_b       6.967141135250217
_cell_length_c       111.80284881591797
_cell_angle_alpha    84.40077137922492
_cell_angle_beta     67.18102105060022
_cell_angle_gamma    67.18102065652535

_space_group_name_H-M_alt    "P 1"
_space_group_IT_number       1

loop_
  _space_group_symop_operation_xyz
  'x, y, z'

loop_
  _atom_site_type_symbol
  _atom_site_label
  _atom_site_symmetry_multiplicity
  _atom_site_fract_x
  _atom_site_fract_y
  _atom_site_fract_z
  _atom_site_occupancy
  C   C1        1.0  0.007004564089035817  0.0015945290332246157  0.9999395790215123  1.0000
  O   O1        1.0  0.007004564089035817  0.0015945290332246157  4.691049688298524e-05  1.0000
  Al  Al1       1.0  0.001319549687066708  0.00029534220066348423  0.9987130324939468  1.0000
  Al  Al2       1.0  0.006319549502999827  0.005295342251520287  0.9990246139905251  1.0000
  Al  Al3       1.0  0.003750000146690987  0.007864891806481995  0.9988644888954377  1.0000
  Al  Al4       1.0  0.00874999972691936  0.0028648918646040555  0.999176070790901  1.0000
  Al  Al5       1.0  0.006180450570174002  0.00029534220066348423  0.9987130325414734  1.0000
  Al  Al6       1.0  0.0011804501841765531  0.005295342251520287  0.999024614137799  1.0000
  Al  Al7       1.0  0.008680450929617573  0.009508375598145748  0.9990736550673982  1.0000
  Al  Al8       1.0  0.003680450275284178  0.004508375365657506  0.998762073321079  1.0000
  Al  Al9       1.0  0.006249999708763794  0.0019388256653906472  0.9989221984156034  1.0000
  Al  Al10      1.0  0.0012500002057061958  0.006938825461963435  0.9992337799969241  1.0000
  Al  Al11      1.0  0.0038195498595375308  0.009508375598145748  0.9990736547568152  1.0000
  Al  Al12      1.0  0.008819549594107454  0.004508375365657506  0.9987620731738052  1.0000
  Fe  Fe1       1.0  0.0012499999845099754  0.00198519210317419  0.9989193086392026  1.0000
  Fe  Fe2       1.0  0.006249999890952376  0.006985192335662431  0.9992308903995413  1.0000
  Fe  Fe3       1.0  0.00874999979377403  0.007818525514003603  0.9988673786724016  1.0000
  Fe  Fe4       1.0  0.0037500001069355783  0.0028185255721256642  0.9991789598504037  1.0000
  Al  Al13      1.0  0.001319549687066708  0.00029534220066348423  0.9993361957047325  1.0000
  Al  Al14      1.0  0.00636058293314192  0.005319547183581643  0.9996425220242755  1.0000
  Al  Al15      1.0  0.003750000146690987  0.007864891806481995  0.9994876523727847  1.0000
  Al  Al16      1.0  0.008431570846255619  0.003148286603506741  0.999822804884088  1.0000
  Al  Al17      1.0  0.006180450570174002  0.00029534220066348423  0.9993361954856976  1.0000
  Al  Al18      1.0  0.001213733363326533  0.005315691947314073  0.9996422819882745  1.0000
  Al  Al19      1.0  0.00844796412178843  0.009704657864723833  0.9997195519728229  1.0000
  Al  Al20      1.0  0.003680450275284178  0.004508375365657506  0.9993852362653034  1.0000
  Al  Al21      1.0  0.006249999708763794  0.0019388256653906472  0.9995453613598277  1.0000
  Al  Al22      1.0  0.001309800292262408  0.0067594462529963085  0.9998599434251416  1.0000
  Al  Al23      1.0  0.003507495361872518  0.009704312038464342  0.9997197897873202  1.0000
  Al  Al24      1.0  0.008819549594107454  0.004508375365657506  0.9993852366511523  1.0000
  Fe  Fe5       1.0  0.0012499999845099754  0.00198519210317419  0.9995424721165497  1.0000
  Fe  Fe6       1.0  0.006594631482583941  0.0069328301714312495  0.9998164668173992  1.0000
  Fe  Fe7       1.0  0.00874999979377403  0.007818525514003603  0.9994905416166259  1.0000
  Fe  Fe8       1.0  0.0038765124727142605  0.0029986748983933387  0.9997774451109213  1.0000
