data_image0
_chemical_formula_structural       COSi8Ir8Si8Ir8
_chemical_formula_sum              "C1 O1 Si16 Ir16"
_cell_length_a       6.4788818359375
_cell_length_b       8.505348336428044
_cell_length_c       35.97860336303711
_cell_angle_alpha    97.4335618618319
_cell_angle_beta     90.0
_cell_angle_gamma    90.0

_space_group_name_H-M_alt    "P 1"
_space_group_IT_number       1

loop_
  _space_group_symop_operation_xyz
  'x, y, z'

loop_
  _atom_site_type_symbol
  _atom_site_label
  _atom_site_symmetry_multiplicity
  _atom_site_fract_x
  _atom_site_fract_y
  _atom_site_fract_z
  _atom_site_occupancy
  C   C1        1.0  0.00125  0.0013768782458688249  0.0002807192930704943  1.0000
  O   O1        1.0  0.00125  0.0013768782458688249  0.0006142507088202499  1.0000
  Si  Si1       1.0  0.0037500000000000003  0.008120332968133042  0.9978758052647211  1.0000
  Si  Si2       1.0  0.0037500000000000003  0.0031203324027491678  0.9990578059173861  1.0000
  Si  Si3       1.0  0.00125  0.0018962058618236864  0.998482435209775  1.0000
  Si  Si4       1.0  0.00125  0.006801633385533342  0.9996592868177615  1.0000
  Si  Si5       1.0  0.0037500000000000003  0.003495059338239094  0.00010689505715113377  1.0000
  Si  Si6       1.0  0.0037500000000000003  0.008725211556751707  0.9989148126569819  1.0000
  Si  Si7       1.0  0.00125  0.006291326734323516  0.9986254286697901  1.0000
  Si  Si8       1.0  0.00125  0.0011111797380143988  0.9997952274972425  1.0000
  Ir  Ir1       1.0  0.0037500000000000003  0.003989148527220237  0.9984239500418227  1.0000
  Ir  Ir2       1.0  0.0037500000000000003  0.008969249788744315  0.9996043578395674  1.0000
  Ir  Ir3       1.0  0.00125  0.0060273900818834155  0.9979342904259186  1.0000
  Ir  Ir4       1.0  0.00125  0.0010273898477791551  0.9991162910887157  1.0000
  Ir  Ir5       1.0  0.0037500000000000003  0.0010439279886742868  0.9979381997590044  1.0000
  Ir  Ir6       1.0  0.0037500000000000003  0.006043928443631623  0.9991202006416764  1.0000
  Ir  Ir7       1.0  0.00125  0.008972610289149752  0.9984200406986049  1.0000
  Ir  Ir8       1.0  0.00125  0.003915674242461934  0.9996266369002117  1.0000
  Si  Si9       1.0  0.00875  0.008120332968133042  0.9978758052647211  1.0000
  Si  Si10      1.0  0.00875  0.0031203324027491678  0.9990578059173861  1.0000
  Si  Si11      1.0  0.00625  0.0018962058618236864  0.998482435209775  1.0000
  Si  Si12      1.0  0.00625  0.006801633385533342  0.9996592868177615  1.0000
  Si  Si13      1.0  0.00875  0.003495059338239094  0.00010689505715113377  1.0000
  Si  Si14      1.0  0.00875  0.008725211556751707  0.9989148126569819  1.0000
  Si  Si15      1.0  0.00625  0.006291326734323516  0.9986254286697901  1.0000
  Si  Si16      1.0  0.00625  0.0011111797380143988  0.9997952274972425  1.0000
  Ir  Ir9       1.0  0.00875  0.003989148527220237  0.9984239500418227  1.0000
  Ir  Ir10      1.0  0.00875  0.008969249788744315  0.9996043578395674  1.0000
  Ir  Ir11      1.0  0.00625  0.0060273900818834155  0.9979342904259186  1.0000
  Ir  Ir12      1.0  0.00625  0.0010273898477791551  0.9991162910887157  1.0000
  Ir  Ir13      1.0  0.00875  0.0010439279886742868  0.9979381997590044  1.0000
  Ir  Ir14      1.0  0.00875  0.006043928443631623  0.9991202006416764  1.0000
  Ir  Ir15      1.0  0.00625  0.008972610289149752  0.9984200406986049  1.0000
  Ir  Ir16      1.0  0.00625  0.003915674242461934  0.9996266369002117  1.0000
