data_image0
_chemical_formula_structural       HSi16Ir12Si16Ir12
_chemical_formula_sum              "H1 Si32 Ir24"
_cell_length_a       5.85405158996582
_cell_length_b       19.450338831075566
_cell_length_c       99.98412322998047
_cell_angle_alpha    101.11020113332687
_cell_angle_beta     90.0
_cell_angle_gamma    90.0

_space_group_name_H-M_alt    "P 1"
_space_group_IT_number       1

loop_
  _space_group_symop_operation_xyz
  'x, y, z'

loop_
  _atom_site_type_symbol
  _atom_site_label
  _atom_site_symmetry_multiplicity
  _atom_site_fract_x
  _atom_site_fract_y
  _atom_site_fract_z
  _atom_site_occupancy
  H   H1        1.0  0.009104386708432043  0.0008453532182272752  0.00022631893538963414  1.0000
  Si  Si1       1.0  0.009726310615577173  0.004511630018258206  0.9997993135809033  1.0000
  Si  Si2       1.0  0.00027368899544714736  0.005505112447359006  0.9996491247351348  1.0000
  Si  Si3       1.0  0.004726310959212129  0.0005051124668776471  0.9994616941958424  1.0000
  Si  Si4       1.0  0.005273688989878988  0.00951162970595995  0.9996118828384072  1.0000
  Si  Si5       1.0  0.0007473501093084977  0.009100238433471977  0.9995964616788051  1.0000
  Si  Si6       1.0  0.00925264991932775  0.0009165040321452342  0.9994771156644903  1.0000
  Si  Si7       1.0  0.005747350004308928  0.005916504110219798  0.999664546207441  1.0000
  Si  Si8       1.0  0.00425264994478219  0.004100238355397414  0.9997838921085971  1.0000
  Si  Si9       1.0  0.007154456240801783  0.002706082925117874  0.9997316306475621  1.0000
  Si  Si10      1.0  0.0028455437082893346  0.007310659345312928  0.9997168076611593  1.0000
  Si  Si11      1.0  0.0021544562662562244  0.002310659657611183  0.9995293771328421  1.0000
  Si  Si12      1.0  0.007845543682834893  0.007706082808006028  0.9995442002104533  1.0000
  Si  Si13      1.0  0.003889589431878051  0.0014471248253315858  0.99968443720826  1.0000
  Si  Si14      1.0  0.006110410517213067  0.00856961793306524  0.9997640011187534  1.0000
  Si  Si15      1.0  0.00888958940642361  0.003569617464617857  0.999576570561169  1.0000
  Si  Si16      1.0  0.0011104103835772507  0.006447125000999355  0.9994970067821264  1.0000
  Ir  Ir1       1.0  0.003923370020785486  0.008270212911209359  0.9995653469543602  1.0000
  Ir  Ir2       1.0  0.006076629928305632  0.0017465293592214429  0.9995082300835478  1.0000
  Ir  Ir3       1.0  0.008923369995331045  0.006746529242109597  0.9996956606191818  1.0000
  Ir  Ir4       1.0  0.0010766297946698156  0.003270213223507614  0.9997527776968563  1.0000
  Ir  Ir5       1.0  0.004998755888732244  0.006770078872798173  0.9995091127677747  1.0000
  Ir  Ir6       1.0  0.005001244060358874  0.0032466637880054485  0.999564464284767  1.0000
  Ir  Ir7       1.0  0.009998755863277801  0.008246664061266422  0.9997518948350346  1.0000
  Ir  Ir8       1.0  1.2439999760427176e-06  0.001770078599537199  0.9996965434883204  1.0000
  Ir  Ir9       1.0  0.0030416097233847547  0.005321415100220258  0.9994548082992036  1.0000
  Ir  Ir10      1.0  0.0069583902257063625  0.004695327365396954  0.9996187690440917  1.0000
  Ir  Ir11      1.0  0.008041609697930314  0.009695327443471518  0.9998061995870425  1.0000
  Ir  Ir12      1.0  0.001958390251160804  0.00032141524173040465  0.999642238737227  1.0000
  Si  Si17      1.0  0.009631318459210501  0.004566118256356394  0.000167673211440816  1.0000
  Si  Si18      1.0  0.0004548308926944817  0.005510950472869526  4.427602728371078e-05  1.0000
  Si  Si19      1.0  0.004726310959212129  0.0005051124668776471  0.9998365554666557  1.0000
  Si  Si20      1.0  0.005112107060809479  0.009504731818245413  0.9999885282117211  1.0000
  Si  Si21      1.0  0.0007307071206599974  0.009078769489909518  0.9999667821462345  1.0000
  Si  Si22      1.0  0.00925264991932775  0.0009165040321452342  0.9998519769353036  1.0000
  Si  Si23      1.0  0.006243282063880303  0.005875733572986851  3.750369833764787e-06  1.0000
  Si  Si24      1.0  0.004335292242642974  0.004167182219036503  0.0001385507627783112  1.0000
  Si  Si25      1.0  0.007580176042508021  0.002719733872231039  9.38786988196879e-05  1.0000
  Si  Si26      1.0  0.002842393084830652  0.00732614933877715  9.626698638456943e-05  1.0000
  Si  Si27      1.0  0.0021074498678853412  0.002294749622993546  0.9999108487480853  1.0000
  Si  Si28      1.0  0.007869552311768276  0.007705485537592715  0.9999217616683075  1.0000
  Si  Si29      1.0  0.003858722103765172  0.0013950234242429392  7.116305671166665e-05  1.0000
  Si  Si30      1.0  0.006101379917838766  0.008550751995460933  0.00014855664882990665  1.0000
  Si  Si31      1.0  0.008912963583410254  0.0035955893586493127  0.9999492616671389  1.0000
  Si  Si32      1.0  0.0011104103835772507  0.006447125000999355  0.9998718677548691  1.0000
  Ir  Ir13      1.0  0.003929645813261658  0.00825798331153075  0.9999391134044595  1.0000
  Ir  Ir14      1.0  0.006026867768495075  0.00173398199606804  0.9998891836218029  1.0000
  Ir  Ir15      1.0  0.009135675307546668  0.006726541373023027  7.038843632767e-05  1.0000
  Ir  Ir16      1.0  0.001106273161886947  0.003411528184043108  0.00012788491396852254  1.0000
  Ir  Ir17      1.0  0.0050223400648587305  0.006774607978246053  0.9998867939623649  1.0000
  Ir  Ir18      1.0  0.004995812718969285  0.0032073052292593985  0.9999419003390004  1.0000
  Ir  Ir19      1.0  0.009937280842352215  0.008207605699218305  0.00011539780610423683  1.0000
  Ir  Ir20      1.0  6.123869731970487e-05  0.0017461296174546242  6.191810216840511e-05  1.0000
  Ir  Ir21      1.0  0.0030416097233847547  0.005321415100220258  0.9998296692719465  1.0000
  Ir  Ir22      1.0  0.0067310286115249895  0.0046688343236519205  0.9999837168365953  1.0000
  Ir  Ir23      1.0  0.008147535173150476  0.00959482986490727  0.00013765289454212854  1.0000
  Ir  Ir24      1.0  0.0019065688270577207  0.00030467273707591145  0.9999953222048387  1.0000
