data_image0
_chemical_formula_structural       COFe3Si6Fe3Si6
_chemical_formula_sum              "C1 O1 Fe6 Si12"
_cell_length_a       6.075223991787585
_cell_length_b       5.161032676696777
_cell_length_c       100.73847198486328
_cell_angle_alpha    90.0
_cell_angle_beta     108.43494988949773
_cell_angle_gamma    90.0

_space_group_name_H-M_alt    "P 1"
_space_group_IT_number       1

loop_
  _space_group_symop_operation_xyz
  'x, y, z'

loop_
  _atom_site_type_symbol
  _atom_site_label
  _atom_site_symmetry_multiplicity
  _atom_site_fract_x
  _atom_site_fract_y
  _atom_site_fract_z
  _atom_site_occupancy
  C   C1        1.0  0.0026170024688589484  0.001363588911123235  0.0002130204599953556  1.0000
  O   O1        1.0  0.0026170024688589484  0.001363588911123235  0.0003321404394591436  1.0000
  Fe  Fe1       1.0  0.001666666718375717  0.001363588911123235  0.9998410769439766  1.0000
  Fe  Fe2       1.0  0.008333333591878586  0.001363588911123235  0.999968215634933  1.0000
  Fe  Fe3       1.0  0.005000000155127151  0.001363588911123235  0.9997139390044502  1.0000
  Si  Si1       1.0  0.001666666718375717  0.004090766913822461  3.17845248198153e-05  1.0000
  Si  Si2       1.0  0.008333333591878586  0.004090766913822461  0.9997775083499284  1.0000
  Si  Si3       1.0  0.005000000155127151  0.004090766913822461  0.9999046459936163  1.0000
  Si  Si4       1.0  0.001666666718375717  0.00863641119714842  3.17845248198153e-05  1.0000
  Si  Si5       1.0  0.008333333591878586  0.00863641119714842  0.9997775083499284  1.0000
  Si  Si6       1.0  0.005000000155127151  0.00863641119714842  0.9999046459936163  1.0000
  Fe  Fe4       1.0  0.001666666718375717  0.001363588911123235  0.9994596629656445  1.0000
  Fe  Fe5       1.0  0.008333333591878586  0.001363588911123235  0.9995868010649237  1.0000
  Fe  Fe6       1.0  0.005000000155127151  0.001363588911123235  0.9993325247302796  1.0000
  Si  Si7       1.0  0.001666666718375717  0.004090766913822461  0.9996503699548106  1.0000
  Si  Si8       1.0  0.008333333591878586  0.004090766913822461  0.9993960940757577  1.0000
  Si  Si9       1.0  0.005000000155127151  0.004090766913822461  0.9995232320152841  1.0000
  Si  Si10      1.0  0.001666666718375717  0.00863641119714842  0.9996503699548106  1.0000
  Si  Si11      1.0  0.008333333591878586  0.00863641119714842  0.9993960940757577  1.0000
  Si  Si12      1.0  0.005000000155127151  0.00863641119714842  0.9995232320152841  1.0000
