data_image0
_chemical_formula_structural       COSb16Rh8Sb16Rh8
_chemical_formula_sum              "C1 O1 Sb32 Rh16"
_cell_length_a       6.6856608390808105
_cell_length_b       12.241878111250582
_cell_length_c       103.70828247070312
_cell_angle_alpha    86.80244850638785
_cell_angle_beta     90.0
_cell_angle_gamma    90.0

_space_group_name_H-M_alt    "P 1"
_space_group_IT_number       1

loop_
  _space_group_symop_operation_xyz
  'x, y, z'

loop_
  _atom_site_type_symbol
  _atom_site_label
  _atom_site_symmetry_multiplicity
  _atom_site_fract_x
  _atom_site_fract_y
  _atom_site_fract_z
  _atom_site_occupancy
  C   C1        1.0  0.0017055614411615075  0.008834166898788326  0.9999706028076721  1.0000
  O   O1        1.0  0.0017055614411615075  0.008834166898788326  8.631221904035126e-05  1.0000
  Sb  Sb1       1.0  0.006386344629357984  0.0008767664165604564  0.9987973672423014  1.0000
  Sb  Sb2       1.0  0.006386344629357984  0.005876766294647821  0.9991223969205132  1.0000
  Sb  Sb3       1.0  0.0013863446739344634  0.0016232336748740206  0.9989507480823053  1.0000
  Sb  Sb4       1.0  0.0013863446739344634  0.0066232337053521795  0.9992757777595137  1.0000
  Sb  Sb5       1.0  0.003615461186118071  0.004123233766308497  0.9987882330533366  1.0000
  Sb  Sb6       1.0  0.003615461186118071  0.009123233949177452  0.9991132630169085  1.0000
  Sb  Sb7       1.0  0.00861546114154159  0.003376766355604139  0.9992849119484785  1.0000
  Sb  Sb8       1.0  0.00861546114154159  0.008376766538473093  0.998959882177908  1.0000
  Sb  Sb9       1.0  0.0036331923166802974  0.0018655854795809016  0.999257045561753  1.0000
  Sb  Sb10      1.0  0.0036331923166802974  0.006865585662449856  0.9989320155038157  1.0000
  Sb  Sb11      1.0  0.008633192550706815  0.0006344146118535753  0.9991411294969961  1.0000
  Sb  Sb12      1.0  0.008633192550706815  0.0056344149471133234  0.9988160997254222  1.0000
  Sb  Sb13      1.0  0.006368613220192759  0.0031344147032880522  0.9989786147553943  1.0000
  Sb  Sb14      1.0  0.006368613220192759  0.008134414581375418  0.9993036447209729  1.0000
  Sb  Sb15      1.0  0.0013686134040707383  0.004365585418624584  0.9990945305337877  1.0000
  Sb  Sb16      1.0  0.0013686134040707383  0.00936558529671195  0.9987695004778572  1.0000
  Rh  Rh1       1.0  6.1643998480761695e-06  0.00143647616549455  0.9987133988789166  1.0000
  Rh  Rh2       1.0  6.1643998480761695e-06  0.006436476348363504  0.9990384288424885  1.0000
  Rh  Rh3       1.0  0.00500616432534354  0.001063523925939927  0.9990347164456901  1.0000
  Rh  Rh4       1.0  0.00500616432534354  0.006063524261199675  0.9987096866741162  1.0000
  Rh  Rh5       1.0  0.009995641445556034  0.0035635240173744038  0.9988722014167214  1.0000
  Rh  Rh6       1.0  0.009995641445556034  0.008563523895461769  0.9991972310949332  1.0000
  Rh  Rh7       1.0  0.004995641490132515  0.003936476104538233  0.9992009438724606  1.0000
  Rh  Rh8       1.0  0.004995641490132515  0.008936476592188776  0.9988759138125165  1.0000
  Sb  Sb17      1.0  0.006386344629357984  0.0008767664165604564  0.9994474266890769  1.0000
  Sb  Sb18      1.0  0.006384351503514731  0.005959463902351295  0.9997857316275366  1.0000
  Sb  Sb19      1.0  0.0013863446739344634  0.0016232336748740206  0.9996008078164477  1.0000
  Sb  Sb20      1.0  0.001312543157833118  0.0068234203487208545  0.9999208511837392  1.0000
  Sb  Sb21      1.0  0.003615461186118071  0.004123233766308497  0.9994382925001122  1.0000
  Sb  Sb22      1.0  0.0035967939494846494  0.009153212266283725  0.9997688781642957  1.0000
  Sb  Sb23      1.0  0.008557651576791331  0.0030394612183227087  0.9999448373927702  1.0000
  Sb  Sb24      1.0  0.00861546114154159  0.008376766538473093  0.9996099419120503  1.0000
  Sb  Sb25      1.0  0.0043925874717126575  0.0018941934986624722  0.9999095012245971  1.0000
  Sb  Sb26      1.0  0.0036331923166802974  0.006865585662449856  0.9995820749505911  1.0000
  Sb  Sb27      1.0  0.008550842519535374  0.0007900495016504045  0.9998042721981554  1.0000
  Sb  Sb28      1.0  0.008633192550706815  0.0056344149471133234  0.9994661594595645  1.0000
  Sb  Sb29      1.0  0.006368613220192759  0.0031344147032880522  0.9996286742021697  1.0000
  Sb  Sb30      1.0  0.006324649110000273  0.007876925951435469  0.9999481366187343  1.0000
  Sb  Sb31      1.0  0.0013284221356687652  0.004284675659722913  0.9997539468817298  1.0000
  Sb  Sb32      1.0  0.0013686134040707383  0.00936558529671195  0.9994195602119995  1.0000
  Rh  Rh9       1.0  6.1643998480761695e-06  0.00143647616549455  0.999363458613059  1.0000
  Rh  Rh10      1.0  4.358599967259216e-06  0.00645367944038004  0.9996869373240442  1.0000
  Rh  Rh11      1.0  0.0050126396162086355  0.0010630461046035773  0.9996800742684865  1.0000
  Rh  Rh12      1.0  0.00500616432534354  0.006063524261199675  0.9993597464082585  1.0000
  Rh  Rh13      1.0  0.009995641445556034  0.0035635240173744038  0.9995222611508637  1.0000
  Rh  Rh14      1.0  0.009814328843685405  0.00867320564593996  0.9998377829940618  1.0000
  Rh  Rh15      1.0  0.005148567789806136  0.003911975017370113  0.9998381371509347  1.0000
  Rh  Rh16      1.0  0.004995641490132515  0.008936476592188776  0.9995259732592919  1.0000
