data_image0
_chemical_formula_structural       HV16Rh16
_chemical_formula_sum              "H1 V16 Rh16"
_cell_length_a       13.486312842143674
_cell_length_b       6.484786068013131
_cell_length_c       107.3500747680664
_cell_angle_alpha    115.76368524863604
_cell_angle_beta     100.63258160065604
_cell_angle_gamma    38.5754415248742

_space_group_name_H-M_alt    "P 1"
_space_group_IT_number       1

loop_
  _space_group_symop_operation_xyz
  'x, y, z'

loop_
  _atom_site_type_symbol
  _atom_site_label
  _atom_site_symmetry_multiplicity
  _atom_site_fract_x
  _atom_site_fract_y
  _atom_site_fract_z
  _atom_site_occupancy
  H   H1        1.0  0.0024005609430057563  0.005453985143852639  0.00038108685394656395  1.0000
  V   V1        1.0  0.006506582171761859  0.006746407404390569  0.9999515247859426  1.0000
  V   V2        1.0  0.003947552670169604  0.00439042074299753  0.00016696167964616043  1.0000
  V   V3        1.0  0.009006581613596899  0.00924640700682632  0.9997340698520516  1.0000
  V   V4        1.0  0.0015065819214860675  0.0017464072840750729  0.9995166149337447  1.0000
  V   V5        1.0  0.0054883518549512286  0.00572817735942078  4.0092411809919154e-05  1.0000
  V   V6        1.0  0.0029932912303225877  0.003148866043396406  0.00024123787492007578  1.0000
  V   V7        1.0  0.007988352420998275  0.00822817696185653  0.9998226375039779  1.0000
  V   V8        1.0  0.0004883519331550961  0.00072817730449414  0.9996051825689429  1.0000
  V   V9        1.0  0.007658040089019406  0.003007831172441911  0.00025648885653529086  1.0000
  V   V10       1.0  0.00525658176283057  0.0004964073520794837  0.99962534227051  1.0000
  V   V11       1.0  0.00027857344429926394  0.00544037589189145  6.048243647295896e-05  1.0000
  V   V12       1.0  0.0027565819053309085  0.007996406944053019  0.9998427971514042  1.0000
  V   V13       1.0  0.009190635930312514  0.004643737696851218  0.0001551798399254626  1.0000
  V   V14       1.0  0.0067383518750474295  0.0019781773018785857  0.9994964552732888  1.0000
  V   V15       1.0  0.0017383519679335397  0.006978177422194082  0.9999313647998016  1.0000
  V   V16       1.0  0.004238351789181841  0.009478177547740687  0.9997139098884406  1.0000
  Rh  Rh1       1.0  0.00831834151903308  0.0064164180927589205  0.9995453181210937  1.0000
  Rh  Rh2       1.0  0.005818341135678775  0.003916417967212316  0.9997627730194252  1.0000
  Rh  Rh3       1.0  0.0008340537396570453  0.008986870788036956  0.00019363995055537118  1.0000
  Rh  Rh4       1.0  0.003318341268757288  0.0014164179724434243  0.9999802276555433  1.0000
  Rh  Rh5       1.0  0.006063643543173469  0.008816585650605608  0.00021811709069256426  1.0000
  Rh  Rh6       1.0  0.003676592507680007  0.006058166671052428  0.9995764794123932  1.0000
  Rh  Rh7       1.0  0.008676592391957304  0.0010581666161257886  1.1388996097512525e-05  1.0000
  Rh  Rh8       1.0  0.0011765926864317066  0.0035581665455058234  0.9997939343237543  1.0000
  Rh  Rh9       1.0  0.007106539309373487  0.00011235254756586309  8.593753676559477e-05  1.0000
  Rh  Rh10      1.0  0.00473885933016825  0.007425929972246501  0.00029277560014028914  1.0000
  Rh  Rh11      1.0  0.009568341584802468  0.002666417904439013  0.999871500366845  1.0000
  Rh  Rh12      1.0  0.0020683412486610865  0.005166418029985618  0.9996540454074168  1.0000
  Rh  Rh13      1.0  0.00972142680048916  0.007880846002324922  0.00031888228609615034  1.0000
  Rh  Rh14      1.0  0.007426592394697696  0.004808166608279126  0.9996852067467835  1.0000
  Rh  Rh15      1.0  0.0023729159469211814  0.009887646753100315  0.00011972105637390457  1.0000
  Rh  Rh16      1.0  0.004926592573449394  0.002308166482732521  0.9999026619357626  1.0000
