data_image0
_chemical_formula_structural       HFe9Si3Fe9Si3Fe9Si3Fe9Si3
_chemical_formula_sum              "H1 Fe36 Si12"
_cell_length_a       7.870725154876709
_cell_length_b       7.8707251633074975
_cell_length_c       31.441478729248047
_cell_angle_alpha    90.0
_cell_angle_beta     90.0
_cell_angle_gamma    119.9999999645664

_space_group_name_H-M_alt    "P 1"
_space_group_IT_number       1

loop_
  _space_group_symop_operation_xyz
  'x, y, z'

loop_
  _atom_site_type_symbol
  _atom_site_label
  _atom_site_symmetry_multiplicity
  _atom_site_fract_x
  _atom_site_fract_y
  _atom_site_fract_z
  _atom_site_occupancy
  H   H1        1.0  0.0016666558385377034  0.000833344685691551  0.00039185509366740297  1.0000
  Fe  Fe1       1.0  5.99999993846077e-10  1.3999999883994809e-09  0.9980303183799947  1.0000
  Fe  Fe2       1.0  0.0033333339147441745  0.0016666680566769885  0.9990522838007655  1.0000
  Fe  Fe3       1.0  0.001666655842290923  0.00333334458458333  0.0  1.0000
  Fe  Fe4       1.0  0.0016666673235133309  0.0033333347470266617  0.9985413008534134  1.0000
  Fe  Fe5       1.0  0.00999999963400639  0.009999998775770725  0.9995580710182481  1.0000
  Fe  Fe6       1.0  0.0033333339147441745  0.0016666680566769885  0.9975193356696093  1.0000
  Fe  Fe7       1.0  5.99999993846077e-10  1.3999999883994809e-09  0.9987967925640561  1.0000
  Fe  Fe8       1.0  0.0033333357664673173  0.001666666553716942  0.9998451920839958  1.0000
  Fe  Fe9       1.0  0.0016666673235133309  0.0033333347470266617  0.9977748271432852  1.0000
  Si  Si1       1.0  0.0016666706136151566  0.003333333927230273  0.9992918233932223  1.0000
  Si  Si2       1.0  5.99999993846077e-10  1.3999999883994809e-09  0.9972638444328998  1.0000
  Si  Si3       1.0  0.0033333339147441745  0.0016666680566769885  0.9982858096167041  1.0000
  Fe  Fe10      1.0  6.63944019749517e-10  0.005000001574009066  0.9980303183799947  1.0000
  Fe  Fe11      1.0  0.0033333337772302797  0.006666667854460546  0.9990522838007655  1.0000
  Fe  Fe12      1.0  0.001666655807255801  0.008333344518999619  0.0  1.0000
  Fe  Fe13      1.0  0.0016666672176609619  0.00833333468144295  0.9985413008534134  1.0000
  Fe  Fe14      1.0  0.009999999279938464  0.0049999982948235105  0.9995580710182481  1.0000
  Fe  Fe15      1.0  0.0033333337772302797  0.006666667854460546  0.9975193356696093  1.0000
  Fe  Fe16      1.0  6.63944019749517e-10  0.005000001574009066  0.9987967925640561  1.0000
  Fe  Fe17      1.0  0.003333335780699243  0.006666666761398694  0.9998451920839958  1.0000
  Fe  Fe18      1.0  0.0016666672176609619  0.00833333468144295  0.9977748271432852  1.0000
  Si  Si4       1.0  0.0016666707308728322  0.008333334134912026  0.9992918233932223  1.0000
  Si  Si5       1.0  6.63944019749517e-10  0.005000001574009066  0.9972638444328998  1.0000
  Si  Si6       1.0  0.0033333337772302797  0.006666667854460546  0.9982858096167041  1.0000
  Fe  Fe19      1.0  0.005000000472811355  1.3999999883994809e-09  0.9980303183799947  1.0000
  Fe  Fe20      1.0  0.008333333687555535  0.0016666680566769885  0.9990522838007655  1.0000
  Fe  Fe21      1.0  0.0066666559725743636  0.00333334458458333  0.0  1.0000
  Fe  Fe22      1.0  0.006666667146324691  0.0033333347470266617  0.9985413008534134  1.0000
  Fe  Fe23      1.0  0.004999999487885363  0.009999998775770725  0.9995580710182481  1.0000
  Fe  Fe24      1.0  0.008333333687555535  0.0016666680566769885  0.9975193356696093  1.0000
  Fe  Fe25      1.0  0.005000000472811355  1.3999999883994809e-09  0.9987967925640561  1.0000
  Fe  Fe26      1.0  0.008333335775933511  0.001666666553716942  0.9998451920839958  1.0000
  Fe  Fe27      1.0  0.006666667146324691  0.0033333347470266617  0.9977748271432852  1.0000
  Si  Si7       1.0  0.006666670522903829  0.003333333927230273  0.9992918233932223  1.0000
  Si  Si8       1.0  0.005000000472811355  1.3999999883994809e-09  0.9972638444328998  1.0000
  Si  Si9       1.0  0.008333333687555535  0.0016666680566769885  0.9982858096167041  1.0000
  Fe  Fe28      1.0  0.005000000673410213  0.005000001574009066  0.9980303183799947  1.0000
  Fe  Fe29      1.0  0.008333333700041634  0.006666667854460546  0.9990522838007655  1.0000
  Fe  Fe30      1.0  0.006666655816721994  0.008333344518999619  0.0  1.0000
  Fe  Fe31      1.0  0.006666667227127156  0.00833333468144295  0.9985413008534134  1.0000
  Fe  Fe32      1.0  0.004999999270472269  0.0049999982948235105  0.9995580710182481  1.0000
  Fe  Fe33      1.0  0.008333333700041634  0.006666667854460546  0.9975193356696093  1.0000
  Fe  Fe34      1.0  0.005000000673410213  0.005000001574009066  0.9987967925640561  1.0000
  Fe  Fe35      1.0  0.008333335520059042  0.006666666761398694  0.9998451920839958  1.0000
  Fe  Fe36      1.0  0.006666667227127156  0.00833333468144295  0.9977748271432852  1.0000
  Si  Si10      1.0  0.006666670740339026  0.008333334134912026  0.9992918233932223  1.0000
  Si  Si11      1.0  0.005000000673410213  0.005000001574009066  0.9972638444328998  1.0000
  Si  Si12      1.0  0.008333333700041634  0.006666667854460546  0.9982858096167041  1.0000
