data_image0
_chemical_formula_structural       HCr3Co3Pt6Cr3Co3Pt6Cr3Co3Pt6Cr3Co3Pt6
_chemical_formula_sum              "H1 Cr12 Co12 Pt24"
_cell_length_a       8.508770301579368
_cell_length_b       7.488022327423096
_cell_length_c       102.28851318359375
_cell_angle_alpha    90.0
_cell_angle_beta     108.43494831523515
_cell_angle_gamma    90.0

_space_group_name_H-M_alt    "P 1"
_space_group_IT_number       1

loop_
  _space_group_symop_operation_xyz
  'x, y, z'

loop_
  _atom_site_type_symbol
  _atom_site_label
  _atom_site_symmetry_multiplicity
  _atom_site_fract_x
  _atom_site_fract_y
  _atom_site_fract_z
  _atom_site_occupancy
  H   H1        1.0  0.00486139565173601  0.002916666995016595  0.00012787948850931483  1.0000
  Cr  Cr1       1.0  0.007702334782124562  0.0012500005671498768  0.999848021685896  1.0000
  Cr  Cr2       1.0  0.004126565667738628  0.001249999074650201  0.9999914183871896  1.0000
  Cr  Cr3       1.0  0.000834415363284979  0.0012499964627757686  0.9996491704857887  1.0000
  Co  Co1       1.0  0.007393289204789798  0.0012500016865246335  5.763966906000131e-05  1.0000
  Co  Co2       1.0  0.0041677485773973805  0.0012499964627757686  0.9997368541422916  1.0000
  Co  Co3       1.0  0.0007736897007291854  0.001249998950275228  0.999900275052407  1.0000
  Pt  Pt1       1.0  0.009226310114670662  0.0037500007064498464  9.099462583246788e-06  1.0000
  Pt  Pt2       1.0  0.0058344152132973545  0.0037499964777007655  0.9996491702254504  1.0000
  Pt  Pt3       1.0  0.0024976529936532993  0.003749997970200441  0.999820277688845  1.0000
  Pt  Pt4       1.0  0.005766041624085565  0.003749998467700333  0.9999232832842512  1.0000
  Pt  Pt5       1.0  0.00265597277672006  0.003750003442699252  8.011201462387697e-05  1.0000
  Pt  Pt6       1.0  0.009167748485097304  0.0037499964777007655  0.9997368538834709  1.0000
  Cr  Cr4       1.0  0.007501081849197329  0.0012499964627757686  0.9992984356909728  1.0000
  Cr  Cr5       1.0  0.0041677485773973805  0.0012499964627757686  0.9994738029419442  1.0000
  Cr  Cr6       1.0  0.000834415363284979  0.0012499964627757686  0.9991230683764494  1.0000
  Co  Co4       1.0  0.007501081849197329  0.0012499964627757686  0.9995614865999647  1.0000
  Co  Co5       1.0  0.0041677485773973805  0.0012499964627757686  0.9992107520329523  1.0000
  Co  Co6       1.0  0.000834415363284979  0.0012499964627757686  0.9993861192854413  1.0000
  Pt  Pt7       1.0  0.009167748485097304  0.0037499964777007655  0.999473802974479  1.0000
  Pt  Pt8       1.0  0.0058344152132973545  0.0037499964777007655  0.9991230684074666  1.0000
  Pt  Pt9       1.0  0.0025010821722475972  0.0037499964777007655  0.9992984356645079  1.0000
  Pt  Pt10      1.0  0.0058344152132973545  0.0037499964777007655  0.9993861193164585  1.0000
  Pt  Pt11      1.0  0.0025010821722475972  0.0037499964777007655  0.9995614865734999  1.0000
  Pt  Pt12      1.0  0.009167748485097304  0.0037499964777007655  0.999210752065487  1.0000
  Cr  Cr7       1.0  0.007702334782124562  0.00625000059699987  0.999848021685896  1.0000
  Cr  Cr8       1.0  0.004126565667738628  0.006249999104500195  0.9999914183871896  1.0000
  Cr  Cr9       1.0  0.000834415363284979  0.006249996617000735  0.9996491704857887  1.0000
  Co  Co7       1.0  0.007393289204789798  0.006250001591999654  5.763966906000131e-05  1.0000
  Co  Co8       1.0  0.0041677485773973805  0.006249996617000735  0.9997368541422916  1.0000
  Co  Co9       1.0  0.0007736897007291854  0.006249999104500195  0.999900275052407  1.0000
  Pt  Pt13      1.0  0.009226310114670662  0.008750000238799948  9.099462583246788e-06  1.0000
  Pt  Pt14      1.0  0.0058344152132973545  0.008749996258800814  0.9996491702254504  1.0000
  Pt  Pt15      1.0  0.0024976529936532993  0.00874999824880038  0.999820277688845  1.0000
  Pt  Pt16      1.0  0.005766041624085565  0.00874999824880038  0.9999232832842512  1.0000
  Pt  Pt17      1.0  0.00265597277672006  0.0087500032237993  8.011201462387697e-05  1.0000
  Pt  Pt18      1.0  0.009167748485097304  0.008749996258800814  0.9997368538834709  1.0000
  Cr  Cr10      1.0  0.007501081849197329  0.006249996617000735  0.9992984356909728  1.0000
  Cr  Cr11      1.0  0.0041677485773973805  0.006249996617000735  0.9994738029419442  1.0000
  Cr  Cr12      1.0  0.000834415363284979  0.006249996617000735  0.9991230683764494  1.0000
  Co  Co10      1.0  0.007501081849197329  0.006249996617000735  0.9995614865999647  1.0000
  Co  Co11      1.0  0.0041677485773973805  0.006249996617000735  0.9992107520329523  1.0000
  Co  Co12      1.0  0.000834415363284979  0.006249996617000735  0.9993861192854413  1.0000
  Pt  Pt19      1.0  0.009167748485097304  0.008749996258800814  0.999473802974479  1.0000
  Pt  Pt20      1.0  0.0058344152132973545  0.008749996258800814  0.9991230684074666  1.0000
  Pt  Pt21      1.0  0.0025010821722475972  0.008749996258800814  0.9992984356645079  1.0000
  Pt  Pt22      1.0  0.0058344152132973545  0.008749996258800814  0.9993861193164585  1.0000
  Pt  Pt23      1.0  0.0025010821722475972  0.008749996258800814  0.9995614865734999  1.0000
  Pt  Pt24      1.0  0.009167748485097304  0.008749996258800814  0.999210752065487  1.0000
