data_image0
_chemical_formula_structural       COCu12Si4Cu12Si4Cu12Si4Cu12Si4
_chemical_formula_sum              "C1 O1 Cu48 Si16"
_cell_length_a       15.355829588740605
_cell_length_b       7.303277015686035
_cell_length_c       99.21310424804688
_cell_angle_alpha    90.0
_cell_angle_beta     76.24318372428617
_cell_angle_gamma    90.0

_space_group_name_H-M_alt    "P 1"
_space_group_IT_number       1

loop_
  _space_group_symop_operation_xyz
  'x, y, z'

loop_
  _atom_site_type_symbol
  _atom_site_label
  _atom_site_symmetry_multiplicity
  _atom_site_fract_x
  _atom_site_fract_y
  _atom_site_fract_z
  _atom_site_occupancy
  C   C1        1.0  0.007015518257489071  0.0045833329388677855  0.9998500137819838  1.0000
  O   O1        1.0  0.007015518257489071  0.0045833329388677855  0.9999709657913947  1.0000
  Cu  Cu1       1.0  0.0018749999050902387  0.0012499999387898288  0.9995629282020952  1.0000
  Cu  Cu2       1.0  0.006874999860132983  0.0012499999387898288  0.9997469586863454  1.0000
  Cu  Cu3       1.0  0.0018749999050902387  0.0037499998163694863  0.9997469584684121  1.0000
  Cu  Cu4       1.0  0.006874999860132983  0.0037499998163694863  0.9995629284200286  1.0000
  Cu  Cu5       1.0  0.0006250000099905012  0.0037499998163694863  0.9996089357107438  1.0000
  Cu  Cu6       1.0  0.00562499984015198  0.0037499998163694863  0.9994249056669567  1.0000
  Cu  Cu7       1.0  0.004374999820170978  0.0037499998163694863  0.9996549434465185  1.0000
  Cu  Cu8       1.0  0.009374999400569928  0.0037499998163694863  0.9994709134119242  1.0000
  Cu  Cu9       1.0  0.004374999820170978  0.0012499999387898288  0.9994709131802016  1.0000
  Cu  Cu10      1.0  0.009374999400569928  0.0012499999387898288  0.9996549436782409  1.0000
  Cu  Cu11      1.0  0.003124999800189976  0.0012499999387898288  0.9997009509597635  1.0000
  Cu  Cu12      1.0  0.008124999880113986  0.0012499999387898288  0.9995169209067836  1.0000
  Si  Si1       1.0  0.0006250000099905012  0.0012499999387898288  0.999424906045201  1.0000
  Si  Si2       1.0  0.00562499984015198  0.0012499999387898288  0.9996089359332735  1.0000
  Si  Si3       1.0  0.003124999800189976  0.0037499998163694863  0.9995169206934467  1.0000
  Si  Si4       1.0  0.008124999880113986  0.0037499998163694863  0.9997009511731004  1.0000
  Cu  Cu13      1.0  0.0018749999050902387  0.0012499999387898288  0.9991948682702355  1.0000
  Cu  Cu14      1.0  0.006874999860132983  0.0012499999387898288  0.9993788981537117  1.0000
  Cu  Cu15      1.0  0.0018749999050902387  0.0037499998163694863  0.9993788985365524  1.0000
  Cu  Cu16      1.0  0.006874999860132983  0.0037499998163694863  0.9991948684881689  1.0000
  Cu  Cu17      1.0  0.0006250000099905012  0.0037499998163694863  0.9992408757788841  1.0000
  Cu  Cu18      1.0  0.00562499984015198  0.0037499998163694863  0.999056845735097  1.0000
  Cu  Cu19      1.0  0.004374999820170978  0.0037499998163694863  0.9992868835146588  1.0000
  Cu  Cu20      1.0  0.009374999400569928  0.0037499998163694863  0.9991028534800644  1.0000
  Cu  Cu21      1.0  0.004374999820170978  0.0012499999387898288  0.9991028532483419  1.0000
  Cu  Cu22      1.0  0.009374999400569928  0.0012499999387898288  0.9992868831456073  1.0000
  Cu  Cu23      1.0  0.003124999800189976  0.0012499999387898288  0.9993328910279038  1.0000
  Cu  Cu24      1.0  0.008124999880113986  0.0012499999387898288  0.9991488609749238  1.0000
  Si  Si5       1.0  0.0006250000099905012  0.0012499999387898288  0.9990568458129543  1.0000
  Si  Si6       1.0  0.00562499984015198  0.0012499999387898288  0.9992408760014138  1.0000
  Si  Si7       1.0  0.003124999800189976  0.0037499998163694863  0.9991488607615869  1.0000
  Si  Si8       1.0  0.008124999880113986  0.0037499998163694863  0.9993328906404668  1.0000
  Cu  Cu25      1.0  0.0018749999050902387  0.006249999693949144  0.9995629282020952  1.0000
  Cu  Cu26      1.0  0.006874999860132983  0.006249999693949144  0.9997469586863454  1.0000
  Cu  Cu27      1.0  0.0018749999050902387  0.00875000008161356  0.9997469584684121  1.0000
  Cu  Cu28      1.0  0.006874999860132983  0.00875000008161356  0.9995629284200286  1.0000
  Cu  Cu29      1.0  0.0006250000099905012  0.00875000008161356  0.9996089357107438  1.0000
  Cu  Cu30      1.0  0.00562499984015198  0.00875000008161356  0.9994249056669567  1.0000
  Cu  Cu31      1.0  0.004374999820170978  0.00875000008161356  0.9996549434465185  1.0000
  Cu  Cu32      1.0  0.009374999400569928  0.00875000008161356  0.9994709134119242  1.0000
  Cu  Cu33      1.0  0.004374999820170978  0.006249999693949144  0.9994709131802016  1.0000
  Cu  Cu34      1.0  0.009374999400569928  0.006249999693949144  0.9996549436782409  1.0000
  Cu  Cu35      1.0  0.003124999800189976  0.006249999693949144  0.9997009509597635  1.0000
  Cu  Cu36      1.0  0.008124999880113986  0.006249999693949144  0.9995169209067836  1.0000
  Si  Si9       1.0  0.0006250000099905012  0.006249999693949144  0.999424906045201  1.0000
  Si  Si10      1.0  0.00562499984015198  0.006249999693949144  0.9996089359332735  1.0000
  Si  Si11      1.0  0.003124999800189976  0.00875000008161356  0.9995169206934467  1.0000
  Si  Si12      1.0  0.008124999880113986  0.00875000008161356  0.9997009511731004  1.0000
  Cu  Cu37      1.0  0.0018749999050902387  0.006249999693949144  0.9991948682702355  1.0000
  Cu  Cu38      1.0  0.006874999860132983  0.006249999693949144  0.9993788981537117  1.0000
  Cu  Cu39      1.0  0.0018749999050902387  0.00875000008161356  0.9993788985365524  1.0000
  Cu  Cu40      1.0  0.006874999860132983  0.00875000008161356  0.9991948684881689  1.0000
  Cu  Cu41      1.0  0.0006250000099905012  0.00875000008161356  0.9992408757788841  1.0000
  Cu  Cu42      1.0  0.00562499984015198  0.00875000008161356  0.999056845735097  1.0000
  Cu  Cu43      1.0  0.004374999820170978  0.00875000008161356  0.9992868835146588  1.0000
  Cu  Cu44      1.0  0.009374999400569928  0.00875000008161356  0.9991028534800644  1.0000
  Cu  Cu45      1.0  0.004374999820170978  0.006249999693949144  0.9991028532483419  1.0000
  Cu  Cu46      1.0  0.009374999400569928  0.006249999693949144  0.9992868831456073  1.0000
  Cu  Cu47      1.0  0.003124999800189976  0.006249999693949144  0.9993328910279038  1.0000
  Cu  Cu48      1.0  0.008124999880113986  0.006249999693949144  0.9991488609749238  1.0000
  Si  Si13      1.0  0.0006250000099905012  0.006249999693949144  0.9990568458129543  1.0000
  Si  Si14      1.0  0.00562499984015198  0.006249999693949144  0.9992408760014138  1.0000
  Si  Si15      1.0  0.003124999800189976  0.00875000008161356  0.9991488607615869  1.0000
  Si  Si16      1.0  0.008124999880113986  0.00875000008161356  0.9993328906404668  1.0000
