data_image0
_chemical_formula_structural       HV12Au4V12Au4
_chemical_formula_sum              "H1 V24 Au8"
_cell_length_a       4.8841705322265625
_cell_length_b       6.907259941101074
_cell_length_c       35.46369934082031
_cell_angle_alpha    90.0
_cell_angle_beta     90.0
_cell_angle_gamma    90.0

_space_group_name_H-M_alt    "P 1"
_space_group_IT_number       1

loop_
  _space_group_symop_operation_xyz
  'x, y, z'

loop_
  _atom_site_type_symbol
  _atom_site_label
  _atom_site_symmetry_multiplicity
  _atom_site_fract_x
  _atom_site_fract_y
  _atom_site_fract_z
  _atom_site_occupancy
  H   H1        1.0  0.007500015193528206  0.008866608534981078  0.0001673823340822813  1.0000
  V   V1        1.0  0.009999989748944825  0.0061006665148374516  0.0  1.0000
  V   V2        1.0  1.0449999874773656e-08  0.0012886166307596785  0.9990681148911924  1.0000
  V   V3        1.0  1.0449999874773656e-08  0.0037886168033451763  0.9985811901945078  1.0000
  V   V4        1.0  1.5550000520169752e-08  0.008755044415223035  0.9996398236448588  1.0000
  V   V5        1.0  0.004999986103108237  0.006322891377138386  0.9996396316222895  1.0000
  V   V6        1.0  0.005000010510382464  0.0012886166307596785  0.9985811901945078  1.0000
  V   V7        1.0  0.0050000147053827215  0.008978173194068802  1.1765058952760773e-07  1.0000
  V   V8        1.0  0.005000010510382464  0.0037886168033451763  0.9990681148911924  1.0000
  V   V9        1.0  0.007498353973426141  0.0025386857512515555  0.9997696363640789  1.0000
  V   V10       1.0  0.007500010617164289  0.007538617062223423  0.9988246525428501  1.0000
  V   V11       1.0  0.002501658085292782  0.0025386897962241606  0.9997696330026334  1.0000
  V   V12       1.0  0.002500010403600639  0.007538617062223423  0.9988246525428501  1.0000
  Au  Au1       1.0  0.005000010510382464  0.005038616889637925  0.9983377278461654  1.0000
  Au  Au2       1.0  0.005000020425837619  0.00996138360654538  0.9992962250981434  1.0000
  Au  Au3       1.0  0.009999986698035547  0.00511587802371518  0.9992962956884972  1.0000
  Au  Au4       1.0  1.0449999874773656e-08  3.861659924260034e-05  0.9983377278461654  1.0000
  V   V13       1.0  1.0449999874773656e-08  0.006288616975930674  0.9980942654978231  1.0000
  V   V14       1.0  1.0449999874773656e-08  0.0012886166307596785  0.9971204161044537  1.0000
  V   V15       1.0  1.0449999874773656e-08  0.0037886168033451763  0.9966334916178594  1.0000
  V   V16       1.0  1.0449999874773656e-08  0.00878861660918649  0.9976073408011384  1.0000
  V   V17       1.0  0.005000010510382464  0.006288616975930674  0.9976073408011384  1.0000
  V   V18       1.0  0.005000010510382464  0.0012886166307596785  0.9966334916178594  1.0000
  V   V19       1.0  0.005000010510382464  0.00878861660918649  0.9980942654978231  1.0000
  V   V20       1.0  0.005000010510382464  0.0037886168033451763  0.9971204161044537  1.0000
  V   V21       1.0  0.007500010617164289  0.0025386167170524275  0.9978508031494807  1.0000
  V   V22       1.0  0.007500010617164289  0.007538617062223423  0.9968769537561114  1.0000
  V   V23       1.0  0.002500010403600639  0.0025386167170524275  0.9978508031494807  1.0000
  V   V24       1.0  0.002500010403600639  0.007538617062223423  0.9968769537561114  1.0000
  Au  Au5       1.0  0.005000010510382464  0.005038616889637925  0.9963900294796074  1.0000
  Au  Au6       1.0  0.005000010510382464  3.861659924260034e-05  0.9973638784527961  1.0000
  Au  Au7       1.0  1.0449999874773656e-08  0.005038616889637925  0.9973638784527961  1.0000
  Au  Au8       1.0  1.0449999874773656e-08  3.861659924260034e-05  0.9963900294796074  1.0000
