data_image0
_chemical_formula_structural       COCu5Au5Cu5Au5
_chemical_formula_sum              "C1 O1 Cu10 Au10"
_cell_length_a       4.695655247547635
_cell_length_b       6.468770024094805
_cell_length_c       103.09160614013672
_cell_angle_alpha    103.56667916421478
_cell_angle_beta     101.834333069441
_cell_angle_gamma    74.00690515308523

_space_group_name_H-M_alt    "P 1"
_space_group_IT_number       1

loop_
  _space_group_symop_operation_xyz
  'x, y, z'

loop_
  _atom_site_type_symbol
  _atom_site_label
  _atom_site_symmetry_multiplicity
  _atom_site_fract_x
  _atom_site_fract_y
  _atom_site_fract_z
  _atom_site_occupancy
  C   C1        1.0  0.008583351219758473  0.006536874913473368  0.00020411704616181065  1.0000
  O   O1        1.0  0.008583351219758473  0.006536874913473368  0.0003205186114103231  1.0000
  Cu  Cu1       1.0  0.0010000000333909617  0.004999999780896256  0.9997885540188193  1.0000
  Cu  Cu2       1.0  0.009000000300518654  0.008999999663141113  0.9996815563284567  1.0000
  Cu  Cu3       1.0  0.003000000100172885  0.0009999999291829928  0.999895551192396  1.0000
  Cu  Cu4       1.0  0.0070000002337367315  0.002999999722200819  0.00010954577496950367  1.0000
  Cu  Cu5       1.0  0.005000000166954809  0.007000000018227889  2.548607932769593e-06  1.0000
  Au  Au1       1.0  0.0010000000333909617  0.004999999780896256  5.604744875413897e-05  1.0000
  Au  Au2       1.0  0.009000000300518654  0.008999999663141113  0.9999490497583915  1.0000
  Au  Au3       1.0  0.003000000100172885  0.0009999999291829928  0.9996280577624612  1.0000
  Au  Au4       1.0  0.0070000002337367315  0.002999999722200819  0.9998420523450346  1.0000
  Au  Au5       1.0  0.005000000166954809  0.007000000018227889  0.999735055177998  1.0000
  Cu  Cu6       1.0  0.0010000000333909617  0.004999999780896256  0.999253566580778  1.0000
  Cu  Cu7       1.0  0.009000000300518654  0.008999999663141113  0.9991465691795013  1.0000
  Cu  Cu8       1.0  0.003000000100172885  0.0009999999291829928  0.9993605640434405  1.0000
  Cu  Cu9       1.0  0.0070000002337367315  0.002999999722200819  0.9995745589150998  1.0000
  Cu  Cu10      1.0  0.005000000166954809  0.007000000018227889  0.9994675614589773  1.0000
  Au  Au6       1.0  0.0010000000333909617  0.004999999780896256  0.9995210602997987  1.0000
  Au  Au7       1.0  0.009000000300518654  0.008999999663141113  0.9994140628985219  1.0000
  Au  Au8       1.0  0.003000000100172885  0.0009999999291829928  0.9990930706135057  1.0000
  Au  Au9       1.0  0.0070000002337367315  0.002999999722200819  0.9993070654851651  1.0000
  Au  Au10      1.0  0.005000000166954809  0.007000000018227889  0.9992000680290425  1.0000
