data_image0
_chemical_formula_structural       Re6V12W6H
_chemical_formula_sum              "Re6 V12 W6 H1"
_cell_length_a       6.119439601898193
_cell_length_b       7.49475237575342
_cell_length_c       102.95419311523438
_cell_angle_alpha    94.34775286128394
_cell_angle_beta     90.0
_cell_angle_gamma    114.0948421844541

_space_group_name_H-M_alt    "P 1"
_space_group_IT_number       1

loop_
  _space_group_symop_operation_xyz
  'x, y, z'

loop_
  _atom_site_type_symbol
  _atom_site_label
  _atom_site_symmetry_multiplicity
  _atom_site_fract_x
  _atom_site_fract_y
  _atom_site_fract_z
  _atom_site_occupancy
  Re  Re1       1.0  0.006991657753078903  0.003559689051505706  0.9997687719978049  1.0000
  Re  Re2       1.0  0.0028180707369310303  0.005212808382248344  0.9994987170464406  1.0000
  Re  Re3       1.0  0.0011792234602115024  0.0019328071104901107  1.0666627055099845e-05  1.0000
  Re  Re4       1.0  0.009901403948762568  0.009379474866787751  0.9996320861151273  1.0000
  Re  Re5       1.0  0.005734737259329994  0.0010461414879226023  0.9993653476860206  1.0000
  Re  Re6       1.0  0.004054294658119704  0.007683423314399092  0.9999000266221901  1.0000
  V   V1        1.0  0.006776403778609881  0.008129474648235038  0.99943203223728  1.0000
  V   V2        1.0  0.005043781392248217  0.004717275075164649  0.9999601374241694  1.0000
  V   V3        1.0  0.0009430705121401649  0.006462808054419276  0.9996987706318009  1.0000
  V   V4        1.0  0.001776403809048046  0.008129474648235038  0.99943203223728  1.0000
  V   V5        1.0  9.859593829698652e-05  0.004716740167400887  0.9999601663140455  1.0000
  V   V6        1.0  0.005943070481701999  0.006462808054419276  0.9996987706318009  1.0000
  V   V7        1.0  0.003859737239432297  0.0022961415698798697  0.9995654015631141  1.0000
  V   V8        1.0  0.009693070353711185  0.003962808163695632  0.9992986631685932  1.0000
  V   V9        1.0  0.00803304423406058  0.0006205251058931603  0.999829006245119  1.0000
  V   V10       1.0  0.008859737665566613  0.0022961415698798697  0.9995654015631141  1.0000
  V   V11       1.0  0.004693070536340178  0.003962808163695632  0.9992986631685932  1.0000
  V   V12       1.0  0.0030118965371648885  0.0006207885985071276  0.9998289909099047  1.0000
  W   W1        1.0  0.0020080936899949347  0.0035938903654795817  0.999764473934472  1.0000
  W   W2        1.0  0.007818070706492864  0.005212808382248344  0.9994987170464406  1.0000
  W   W3        1.0  0.005914810193384787  0.0014055519699554713  1.0766199482999052e-05  1.0000
  W   W4        1.0  0.004901403941153027  0.009379474866787751  0.9996320861151273  1.0000
  W   W5        1.0  0.0007347373468397191  0.0010461414879226023  0.9993653476860206  1.0000
  W   W6        1.0  0.009081423365079179  0.00773693376051938  0.9999074151453627  1.0000
  H   H1        1.0  0.00757118892362071  0.004717007894473659  0.00010584788399086973  1.0000
