data_image0
_chemical_formula_structural       HIn4Rh8Ti4
_chemical_formula_sum              "H1 In4 Rh8 Ti4"
_cell_length_a       4.505039215087891
_cell_length_b       4.505039215087891
_cell_length_c       108.22652435302734
_cell_angle_alpha    90.0
_cell_angle_beta     90.0
_cell_angle_gamma    90.0

_space_group_name_H-M_alt    "P 1"
_space_group_IT_number       1

loop_
  _space_group_symop_operation_xyz
  'x, y, z'

loop_
  _atom_site_type_symbol
  _atom_site_label
  _atom_site_symmetry_multiplicity
  _atom_site_fract_x
  _atom_site_fract_y
  _atom_site_fract_z
  _atom_site_occupancy
  H   H1        1.0  0.002499997610211932  0.007500002546902163  0.00011384010128112102  1.0000
  In  In1       1.0  0.005000001422296013  0.005000001422296013  0.9995711169572352  1.0000
  In  In2       1.0  5.89999978859764e-09  0.00999999705617802  0.9998685582575463  1.0000
  In  In3       1.0  0.005000001422296013  0.005000001422296013  0.9989824365118716  1.0000
  In  In4       1.0  1.5999999660614861e-09  1.6999999023302647e-09  0.9992767768722384  1.0000
  Rh  Rh1       1.0  0.009999997883094306  0.005000007210710019  5.50739711283386e-10  1.0000
  Rh  Rh2       1.0  1.5999999660614861e-09  0.005000001422296013  0.9997182872751035  1.0000
  Rh  Rh3       1.0  0.005000001422296013  1.6999999023302647e-09  0.9997182872751035  1.0000
  Rh  Rh4       1.0  0.004999996874256437  0.009999997883094306  0.0  1.0000
  Rh  Rh5       1.0  1.5999999660614861e-09  0.005000001422296013  0.9994239471901066  1.0000
  Rh  Rh6       1.0  1.5999999660614861e-09  0.005000001422296013  0.99912960655437  1.0000
  Rh  Rh7       1.0  0.005000001422296013  1.6999999023302647e-09  0.99912960655437  1.0000
  Rh  Rh8       1.0  0.005000001422296013  1.6999999023302647e-09  0.9994239471901066  1.0000
  Ti  Ti1       1.0  1.5999999660614861e-09  1.6999999023302647e-09  0.9995711169572352  1.0000
  Ti  Ti2       1.0  0.005000001835754156  0.005000002662670443  0.9998813442306834  1.0000
  Ti  Ti3       1.0  1.5999999660614861e-09  1.6999999023302647e-09  0.9989824365118716  1.0000
  Ti  Ti4       1.0  0.005000001422296013  0.005000001422296013  0.9992767768722384  1.0000
