data_image0
_chemical_formula_structural       HPt24Si24
_chemical_formula_sum              "H1 Pt24 Si24"
_cell_length_a       8.266611405159646
_cell_length_b       9.0362884142828
_cell_length_c       100.34246826171875
_cell_angle_alpha    98.00955507697495
_cell_angle_beta     90.8457414723125
_cell_angle_gamma    92.84093095836494

_space_group_name_H-M_alt    "P 1"
_space_group_IT_number       1

loop_
  _space_group_symop_operation_xyz
  'x, y, z'

loop_
  _atom_site_type_symbol
  _atom_site_label
  _atom_site_symmetry_multiplicity
  _atom_site_fract_x
  _atom_site_fract_y
  _atom_site_fract_z
  _atom_site_occupancy
  H   H1        1.0  0.00611580576267892  0.004362603378661123  0.00015406085118478197  1.0000
  Pt  Pt1       1.0  0.00900578070269766  0.0016742106499671348  0.9993934294997932  1.0000
  Pt  Pt2       1.0  0.004005780564610739  0.00722976604803201  0.999225435437402  1.0000
  Pt  Pt3       1.0  0.0009942195415284243  0.0005556236278911687  0.9991621550225276  1.0000
  Pt  Pt4       1.0  0.005994219518806322  0.0050000679359208915  0.9993301490929154  1.0000
  Pt  Pt5       1.0  0.0009417052240612462  0.005508944085822232  0.9991603907696216  1.0000
  Pt  Pt6       1.0  0.005941705497726971  0.009953388654406389  0.9993283845466332  1.0000
  Pt  Pt7       1.0  0.009058295479057408  0.00672088989813067  0.9993951937614494  1.0000
  Pt  Pt8       1.0  0.004058294822800352  0.0022764455379900607  0.999227199986588  1.0000
  Pt  Pt9       1.0  0.009005780619757969  0.0005630995599319821  0.9997294174199716  1.0000
  Pt  Pt10      1.0  0.004005780698193909  0.006118654801664197  0.9995614233558822  1.0000
  Pt  Pt11      1.0  0.0009942194861343166  0.009444512087617955  0.9994981429489702  1.0000
  Pt  Pt12      1.0  0.005994219450571915  0.0038889571064401733  0.9996661370163812  1.0000
  Pt  Pt13      1.0  0.0009417052121633489  0.004397833256341513  0.9994963786931559  1.0000
  Pt  Pt14      1.0  0.005941705429492565  0.00884227782492567  0.9996643727671051  1.0000
  Pt  Pt15      1.0  0.009058295387294543  0.005609778651762857  0.9997311819766616  1.0000
  Pt  Pt16      1.0  0.004058294736919602  0.0011653343958440213  0.9995631879061091  1.0000
  Pt  Pt17      1.0  0.009042399274325322  0.009602231314466754  3.841327606461058e-05  1.0000
  Pt  Pt18      1.0  0.0039269655667446045  0.005031375739817843  0.9998979230694839  1.0000
  Pt  Pt19      1.0  0.0009812149956258285  0.00830479279817606  0.9998216994143658  1.0000
  Pt  Pt20      1.0  0.005931663230787272  0.002773364740695427  0.9999739555594108  1.0000
  Pt  Pt21      1.0  0.000996882744807365  0.0032586919808559045  0.9998279467713872  1.0000
  Pt  Pt22      1.0  0.005885769263559389  0.0077675845844570835  0.9999872239835189  1.0000
  Pt  Pt23      1.0  0.008941828602149825  0.004656098980148757  3.61501014554268e-05  1.0000
  Pt  Pt24      1.0  0.0038703239599582853  4.6611250360965864e-05  0.9998992886291198  1.0000
  Si  Si1       1.0  0.002975833667718317  0.009778451990561836  0.9993217723362771  1.0000
  Si  Si2       1.0  0.007975834122914135  0.005334007838864774  0.999153778480736  1.0000
  Si  Si3       1.0  0.007024166629280548  0.0024513817849475183  0.9992338121916846  1.0000
  Si  Si4       1.0  0.002024166411194993  0.006895826145088129  0.9994018060501294  1.0000
  Si  Si5       1.0  0.008808977965579294  0.00903788041581026  0.9992937796652456  1.0000
  Si  Si6       1.0  0.0038089772975580106  0.004593435847226102  0.9991257858877544  1.0000
  Si  Si7       1.0  0.0011910227047313077  0.003191953985029738  0.9992618048710167  1.0000
  Si  Si8       1.0  0.006191023034733541  0.007636398553613895  0.999429798945103  1.0000
  Si  Si9       1.0  0.0029758335994839115  0.008667341161081117  0.9996577602597428  1.0000
  Si  Si10      1.0  0.007975834054679729  0.004222897009384055  0.9994897664042018  1.0000
  Si  Si11      1.0  0.007024166543399799  0.001340270642801479  0.9995698001112056  1.0000
  Si  Si12      1.0  0.0020241664321051464  0.005784714898720316  0.9997377942654786  1.0000
  Si  Si13      1.0  0.008808977850287973  0.007926768752555352  0.9996297675781919  1.0000
  Si  Si14      1.0  0.0038089774311411803  0.0034823246008582887  0.9994617738062345  1.0000
  Si  Si15      1.0  0.0011910227256414615  0.0020808427386619253  0.9995977927893598  1.0000
  Si  Si16      1.0  0.006191022942970678  0.006525287307246082  0.9997657865663029  1.0000
  Si  Si17      1.0  0.00293250427255107  0.007680438506258723  0.9999968644289529  1.0000
  Si  Si18      1.0  0.0080297701041221  0.0030853219787118375  0.9998229546768055  1.0000
  Si  Si19      1.0  0.006860958582523547  0.0002962122462378241  0.9999189455940131  1.0000
  Si  Si20      1.0  0.001729438883147614  0.0054453537960017905  7.043151491500589e-05  1.0000
  Si  Si21      1.0  0.00874204225010703  0.007000034578283152  0.9999667277709873  1.0000
  Si  Si22      1.0  0.003808977351142546  0.002371213562934023  0.9997977617270704  1.0000
  Si  Si23      1.0  0.0011656239516537835  0.0010186581954586549  0.9999460747054671  1.0000
  Si  Si24      1.0  0.006208013459292777  0.00540812244338153  8.511238696930455e-05  1.0000
