data_image0
_chemical_formula_structural       COV2Sn2Rh4V2Sn2Rh4V2Sn2Rh4V2Sn2Rh4
_chemical_formula_sum              "C1 O1 V8 Sn8 Rh16"
_cell_length_a       8.205523490905762
_cell_length_b       7.392642498016357
_cell_length_c       98.71932983398438
_cell_angle_alpha    90.0
_cell_angle_beta     90.0
_cell_angle_gamma    90.0

_space_group_name_H-M_alt    "P 1"
_space_group_IT_number       1

loop_
  _space_group_symop_operation_xyz
  'x, y, z'

loop_
  _atom_site_type_symbol
  _atom_site_label
  _atom_site_symmetry_multiplicity
  _atom_site_fract_x
  _atom_site_fract_y
  _atom_site_fract_z
  _atom_site_occupancy
  C   C1        1.0  0.002499989739647831  0.00499960805208761  0.00013028762962407665  1.0000
  O   O1        1.0  0.002499989739647831  0.00499960805208761  0.00025184401310267756  1.0000
  V   V1        1.0  1.525000026588581e-08  0.005000149764617591  0.999552559408942  1.0000
  V   V2        1.0  0.002500015163529311  1.498500044872852e-07  0.9993447601582655  1.0000
  Sn  Sn1       1.0  0.002500015163529311  0.005000149764617591  0.9993447601582655  1.0000
  Sn  Sn2       1.0  1.525000026588581e-08  1.498500044872852e-07  0.999552559408942  1.0000
  Rh  Rh1       1.0  1.525000026588581e-08  0.002500149714225728  0.9993447601582655  1.0000
  Rh  Rh2       1.0  0.002500015163529311  0.002500149714225728  0.999552559408942  1.0000
  Rh  Rh3       1.0  0.002500015163529311  0.007500149563050139  0.999552559408942  1.0000
  Rh  Rh4       1.0  1.525000026588581e-08  0.007500149563050139  0.9993447601582655  1.0000
  V   V3        1.0  0.009999984382472805  0.005001318351926453  0.999946290247416  1.0000
  V   V4        1.0  0.0025000315074531197  3.068500004655421e-07  0.9997820868495805  1.0000
  Sn  Sn3       1.0  0.002499999500602328  0.005000119025581007  0.9997514363174629  1.0000
  Sn  Sn4       1.0  4.704999889539832e-08  0.009999850033814957  0.0  1.0000
  Rh  Rh5       1.0  3.5950001416069054e-08  0.002420479170583794  0.9997634729509968  1.0000
  Rh  Rh6       1.0  0.002500081901218196  0.0026112743549922134  0.9999548095671804  1.0000
  Rh  Rh7       1.0  0.002499897578077466  0.007387942001142324  0.9999548608883838  1.0000
  Rh  Rh8       1.0  0.009999974394519367  0.007579538920095115  0.9997634273656926  1.0000
  V   V5        1.0  0.005000015345128464  0.005000149764617591  0.999552559408942  1.0000
  V   V6        1.0  0.007500015072729734  1.498500044872852e-07  0.9993447601582655  1.0000
  Sn  Sn5       1.0  0.007500015072729734  0.005000149764617591  0.9993447601582655  1.0000
  Sn  Sn6       1.0  0.005000015345128464  1.498500044872852e-07  0.999552559408942  1.0000
  Rh  Rh9       1.0  0.005000015345128464  0.002500149714225728  0.9993447601582655  1.0000
  Rh  Rh10      1.0  0.007500015072729734  0.002500149714225728  0.999552559408942  1.0000
  Rh  Rh11      1.0  0.007500015072729734  0.007500149563050139  0.999552559408942  1.0000
  Rh  Rh12      1.0  0.005000015345128464  0.007500149563050139  0.9993447601582655  1.0000
  V   V7        1.0  0.004999984927270265  0.005001318351926453  0.999946290247416  1.0000
  V   V8        1.0  0.007500031416653542  3.068500004655421e-07  0.9997820868495805  1.0000
  Sn  Sn7       1.0  0.007499999636801692  0.005000119025581007  0.9997514363174629  1.0000
  Sn  Sn8       1.0  0.005000047124980314  0.009999850033814957  0.0  1.0000
  Rh  Rh13      1.0  0.005000035775033225  0.002420479170583794  0.9997634729509968  1.0000
  Rh  Rh14      1.0  0.007500081810418619  0.0026112743549922134  0.9999548095671804  1.0000
  Rh  Rh15      1.0  0.007499897487277889  0.007387942001142324  0.9999548608883838  1.0000
  Rh  Rh16      1.0  0.0049999749393168265  0.007579538920095115  0.9997634273656926  1.0000
