data_image0
_chemical_formula_structural       HPt10Se8
_chemical_formula_sum              "H1 Pt10 Se8"
_cell_length_a       6.706260041233056
_cell_length_b       4.723928928375244
_cell_length_c       104.0184326171875
_cell_angle_alpha    90.0
_cell_angle_beta     101.39663037770107
_cell_angle_gamma    90.0

_space_group_name_H-M_alt    "P 1"
_space_group_IT_number       1

loop_
  _space_group_symop_operation_xyz
  'x, y, z'

loop_
  _atom_site_type_symbol
  _atom_site_label
  _atom_site_symmetry_multiplicity
  _atom_site_fract_x
  _atom_site_fract_y
  _atom_site_fract_z
  _atom_site_occupancy
  H   H1        1.0  0.00045138389607547264  6.97673978536056e-05  0.0001821237289252331  1.0000
  Pt  Pt1       1.0  0.008207144854662191  0.006660301003442385  5.555865164922696e-05  1.0000
  Pt  Pt2       1.0  0.0016154055849612195  0.0017122960267203417  0.9995297925804585  1.0000
  Pt  Pt3       1.0  0.001654396563015282  0.0034792333580419585  6.509864047581e-05  1.0000
  Pt  Pt4       1.0  0.008245403981564028  0.008353998490884591  0.9995342480074935  1.0000
  Pt  Pt5       1.0  0.007161817742232519  0.0033975079811365875  0.9991762218109392  1.0000
  Pt  Pt6       1.0  0.002698991965959618  0.008397507918048589  0.9993427480928094  1.0000
  Pt  Pt7       1.0  0.0026615559236869792  0.006688402764031604  0.9998797396013491  1.0000
  Pt  Pt8       1.0  0.007161817742232519  0.0016687867967063422  0.9997212924969474  1.0000
  Pt  Pt9       1.0  0.004841984456553662  0.009930232432843834  6.168502321705702e-05  1.0000
  Pt  Pt10      1.0  0.004930404995762958  0.005033147160227468  0.9995320201534282  1.0000
  Se  Se1       1.0  0.004046048870099341  0.006383322212391149  0.9991371558550379  1.0000
  Se  Se2       1.0  0.005814761121426576  0.0013833224726291454  0.9993818140523202  1.0000
  Se  Se3       1.0  0.005766713379113544  0.0035854743370889704  0.9999297803706142  1.0000
  Se  Se4       1.0  0.004046048870099341  0.008682972439275783  0.9996822262545362  1.0000
  Se  Se5       1.0  7.261080207886345e-05  0.00040843550116715326  0.9991439337626639  1.0000
  Se  Se6       1.0  0.009788199477207923  0.0054084355859416525  0.9993750361483603  1.0000
  Se  Se7       1.0  0.009927388896347745  0.00979062578828455  0.9999367069472619  1.0000
  Se  Se8       1.0  7.261080207886345e-05  0.004657859128813279  0.999689004448672  1.0000
