data_image0
_chemical_formula_structural       HZn15Co5Zn15Co5
_chemical_formula_sum              "H1 Zn30 Co10"
_cell_length_a       8.439421459519389
_cell_length_b       5.337558746337891
_cell_length_c       109.22288513183594
_cell_angle_alpha    90.0
_cell_angle_beta     104.96321745092801
_cell_angle_gamma    71.56505133057662

_space_group_name_H-M_alt    "P 1"
_space_group_IT_number       1

loop_
  _space_group_symop_operation_xyz
  'x, y, z'

loop_
  _atom_site_type_symbol
  _atom_site_label
  _atom_site_symmetry_multiplicity
  _atom_site_fract_x
  _atom_site_fract_y
  _atom_site_fract_z
  _atom_site_occupancy
  H   H1        1.0  0.0003408680490373514  0.007174832820221817  0.00010595975589481575  1.0000
  Zn  Zn1       1.0  0.0056596643320586905  0.004557052082052965  0.9998938283661539  1.0000
  Zn  Zn2       1.0  0.009659132388572054  0.0025062582340159636  0.9997788908536853  1.0000
  Zn  Zn3       1.0  0.0017268310113285074  0.00650049608094468  3.445111179357269e-05  1.0000
  Zn  Zn4       1.0  0.003659131968853862  0.0005062584997101778  0.9996591879505841  1.0000
  Zn  Zn5       1.0  0.007532868073589899  0.008684857360255099  0.00013272976923804595  1.0000
  Zn  Zn6       1.0  0.005659526521362008  0.009455611290672654  0.9998939107484154  1.0000
  Zn  Zn7       1.0  0.009659132388572054  0.007506258178180846  0.9997788908536853  1.0000
  Zn  Zn8       1.0  0.0017272541143446357  0.0014453229376327828  3.437442125144484e-05  1.0000
  Zn  Zn9       1.0  0.003659131968853862  0.00550625844387506  0.9996591879505841  1.0000
  Zn  Zn10      1.0  0.0075333748301166445  0.003453861223940569  0.00013274042499095582  1.0000
  Zn  Zn11      1.0  0.002659131858605305  0.0035062585269168976  0.9998387423996191  1.0000
  Zn  Zn12      1.0  0.00665913181605323  0.0015062585481929347  0.9997190393948995  1.0000
  Zn  Zn13      1.0  0.008774636258675517  0.0054480930911714725  0.9999694996686166  1.0000
  Zn  Zn14      1.0  0.00065913194032463  0.009506258430222117  0.9995993365026511  1.0000
  Zn  Zn15      1.0  0.004655730814399053  0.007507071214804407  9.45152201960015e-05  1.0000
  Co  Co1       1.0  0.004597329058876846  0.0025375682210834792  5.423208316615265e-05  1.0000
  Co  Co2       1.0  0.008685474188561334  0.0004937413307616247  0.9999568610995869  1.0000
  Co  Co3       1.0  0.00065913194032463  0.004506258486057235  0.9995993365026511  1.0000
  Co  Co4       1.0  0.002659131858605305  0.008506258471081779  0.9998387423996191  1.0000
  Co  Co5       1.0  0.00665913181605323  0.006506258492357816  0.9997190393948995  1.0000
  Zn  Zn16      1.0  0.005659131947577825  0.004506258454513078  0.9993000790476905  1.0000
  Zn  Zn17      1.0  0.009659132388572054  0.0025062582340159636  0.9991803763254756  1.0000
  Zn  Zn18      1.0  0.0016591319901298994  0.006506258433237042  0.9994197820524102  1.0000
  Zn  Zn19      1.0  0.003659131968853862  0.0005062584997101778  0.9990606734223745  1.0000
  Zn  Zn20      1.0  0.007659132168074939  0.008506258288429403  0.9995394849506879  1.0000
  Zn  Zn21      1.0  0.005659131947577825  0.00950625839867796  0.9993000790476905  1.0000
  Zn  Zn22      1.0  0.009659132388572054  0.007506258178180846  0.9991803763254756  1.0000
  Zn  Zn23      1.0  0.0016591319901298994  0.0015062584890721594  0.9994197820524102  1.0000
  Zn  Zn24      1.0  0.003659131968853862  0.00550625844387506  0.9990606734223745  1.0000
  Zn  Zn25      1.0  0.007659132168074939  0.0035062583442645213  0.9995394849506879  1.0000
  Zn  Zn26      1.0  0.002659131858605305  0.0035062585269168976  0.9992402275985517  1.0000
  Zn  Zn27      1.0  0.00665913181605323  0.0015062585481929347  0.9991205248666898  1.0000
  Zn  Zn28      1.0  0.00865913155300404  0.005506258623882412  0.9993599304871824  1.0000
  Zn  Zn29      1.0  0.00065913194032463  0.009506258430222117  0.9990008219744415  1.0000
  Zn  Zn30      1.0  0.00465913207910242  0.007506258360833222  0.999479633501549  1.0000
  Co  Co6       1.0  0.00465913207910242  0.00250625841666834  0.999479633501549  1.0000
  Co  Co7       1.0  0.00865913155300404  0.0005062586797175296  0.9993599304871824  1.0000
  Co  Co8       1.0  0.00065913194032463  0.004506258486057235  0.9990008219744415  1.0000
  Co  Co9       1.0  0.002659131858605305  0.008506258471081779  0.9992402275985517  1.0000
  Co  Co10      1.0  0.00665913181605323  0.006506258492357816  0.9991205248666898  1.0000
