data_image0
_chemical_formula_structural       COAl6Fe2Al6Fe2
_chemical_formula_sum              "C1 O1 Al12 Fe4"
_cell_length_a       5.404006481170654
_cell_length_b       5.40400655563711
_cell_length_c       100.78231048583984
_cell_angle_alpha    90.0
_cell_angle_beta     90.0
_cell_angle_gamma    119.9999995441659

_space_group_name_H-M_alt    "P 1"
_space_group_IT_number       1

loop_
  _space_group_symop_operation_xyz
  'x, y, z'

loop_
  _atom_site_type_symbol
  _atom_site_label
  _atom_site_symmetry_multiplicity
  _atom_site_fract_x
  _atom_site_fract_y
  _atom_site_fract_z
  _atom_site_occupancy
  C   C1        1.0  0.008299719116871914  0.0066155405404716965  0.00017186065334069052  1.0000
  O   O1        1.0  0.008299719116871914  0.0066155405404716965  0.0002909288177457556  1.0000
  Al  Al1       1.0  0.0017076642401075313  0.0034314286296321652  0.9993332014830119  1.0000
  Al  Al2       1.0  0.006568564905873663  0.008292329410742228  0.9993332014830119  1.0000
  Al  Al3       1.0  0.001707664397189881  0.008292329410742228  0.9993332014830119  1.0000
  Al  Al4       1.0  0.008281597794840867  0.0065792958283382675  0.9995513682296259  1.0000
  Al  Al5       1.0  0.003420697262774559  0.0017183954452287113  0.9995513682296259  1.0000
  Al  Al6       1.0  0.008281598116136896  0.0017183954452287113  0.9995513682296259  1.0000
  Fe  Fe1       1.0  0.0033279642011704537  0.0066720287523717005  0.9995513682296259  1.0000
  Fe  Fe2       1.0  0.0066612977334711  0.0033386957055987323  0.9993332014830119  1.0000
  Al  Al7       1.0  0.0017002846162285  0.0034166683828448507  0.9997710448707579  1.0000
  Al  Al8       1.0  0.006583339807090909  0.00829971948414855  0.9997710451664678  1.0000
  Al  Al9       1.0  0.0017002788676484216  0.00829972187215159  0.9997710451664678  1.0000
  Al  Al10      1.0  0.008299719116871914  0.0066155405404716965  0.0  1.0000
  Al  Al11      1.0  0.0033844612260892928  0.0017002812481723816  0.0  1.0000
  Al  Al12      1.0  0.008299721465870807  0.0017002780641683288  0.0  1.0000
  Fe  Fe3       1.0  0.0033279626388341087  0.00667203352837778  0.9999687215858315  1.0000
  Fe  Fe4       1.0  0.006661297932471352  0.003338696103599239  0.9997562715021281  1.0000
