data_image0
_chemical_formula_structural       HV2Pt2V2Pt2V2Pt2V2Pt2V2Pt2V2Pt2
_chemical_formula_sum              "H1 V12 Pt12"
_cell_length_a       8.307213208904674
_cell_length_b       5.420310974121094
_cell_length_c       99.81170654296875
_cell_angle_alpha    90.0
_cell_angle_beta     70.95920826962401
_cell_angle_gamma    90.0

_space_group_name_H-M_alt    "P 1"
_space_group_IT_number       1

loop_
  _space_group_symop_operation_xyz
  'x, y, z'

loop_
  _atom_site_type_symbol
  _atom_site_label
  _atom_site_symmetry_multiplicity
  _atom_site_fract_x
  _atom_site_fract_y
  _atom_site_fract_z
  _atom_site_occupancy
  H   H1        1.0  0.009223541962348389  0.0012499999587629901  0.9999540077051022  1.0000
  V   V1        1.0  0.005776457999699909  0.00374999987628897  0.9997073898611527  1.0000
  V   V2        1.0  0.000776457992583964  0.00374999987628897  0.9998431532693132  1.0000
  Pt  Pt1       1.0  0.0032764580850912412  0.0012499999587629901  0.9996395083459452  1.0000
  Pt  Pt2       1.0  0.008276458151506723  0.0012499999587629901  0.9997752719670906  1.0000
  V   V3        1.0  0.005776457999699909  0.00374999987628897  0.9994358634274075  1.0000
  V   V4        1.0  0.000776457992583964  0.00374999987628897  0.999571626835568  1.0000
  Pt  Pt3       1.0  0.0032764580850912412  0.0012499999587629901  0.9993679816136145  1.0000
  Pt  Pt4       1.0  0.008276458151506723  0.0012499999587629901  0.9995037449361746  1.0000
  V   V5        1.0  0.005776457999699909  0.00374999987628897  0.9991643363964915  1.0000
  V   V6        1.0  0.000776457992583964  0.00374999987628897  0.999300099804652  1.0000
  Pt  Pt5       1.0  0.0032764580850912412  0.0012499999587629901  0.9990964545826985  1.0000
  Pt  Pt6       1.0  0.008276458151506723  0.0012499999587629901  0.9992322182038439  1.0000
  V   V7        1.0  0.005776457999699909  0.00874999936769918  0.9997073898611527  1.0000
  V   V8        1.0  0.000776457992583964  0.00874999936769918  0.9998431532693132  1.0000
  Pt  Pt7       1.0  0.0032764580850912412  0.0062499994501732  0.9996395083459452  1.0000
  Pt  Pt8       1.0  0.008276458151506723  0.0062499994501732  0.9997752719670906  1.0000
  V   V9        1.0  0.005776457999699909  0.00874999936769918  0.9994358634274075  1.0000
  V   V10       1.0  0.000776457992583964  0.00874999936769918  0.999571626835568  1.0000
  Pt  Pt9       1.0  0.0032764580850912412  0.0062499994501732  0.9993679816136145  1.0000
  Pt  Pt10      1.0  0.008276458151506723  0.0062499994501732  0.9995037449361746  1.0000
  V   V11       1.0  0.005776457999699909  0.00874999936769918  0.9991643363964915  1.0000
  V   V12       1.0  0.000776457992583964  0.00874999936769918  0.999300099804652  1.0000
  Pt  Pt11      1.0  0.0032764580850912412  0.0062499994501732  0.9990964545826985  1.0000
  Pt  Pt12      1.0  0.008276458151506723  0.0062499994501732  0.9992322182038439  1.0000
