data_image0
_chemical_formula_structural       COAu6Cu6
_chemical_formula_sum              "C1 O1 Au6 Cu6"
_cell_length_a       4.695655451017039
_cell_length_b       5.515267776661719
_cell_length_c       99.43659973144531
_cell_angle_alpha    84.88137600253985
_cell_angle_beta     87.46416461332691
_cell_angle_gamma    78.16566762682655

_space_group_name_H-M_alt    "P 1"
_space_group_IT_number       1

loop_
  _space_group_symop_operation_xyz
  'x, y, z'

loop_
  _atom_site_type_symbol
  _atom_site_label
  _atom_site_symmetry_multiplicity
  _atom_site_fract_x
  _atom_site_fract_y
  _atom_site_fract_z
  _atom_site_occupancy
  C   C1        1.0  0.008586614107921959  0.0009851097460156365  7.186809192648708e-05  1.0000
  O   O1        1.0  0.008586614107921959  0.0009851097460156365  0.00019254764801005544  1.0000
  Au  Au1       1.0  0.007158400503939911  0.004439268961052406  0.9997128241956036  1.0000
  Au  Au2       1.0  0.006417062020894193  0.006987396987941503  0.9999520155582371  1.0000
  Au  Au3       1.0  0.0014133858251294755  0.0005069189515060249  0.9998537057110191  1.0000
  Au  Au4       1.0  0.003272644716621933  0.0056038036192732465  0.999345116068821  1.0000
  Au  Au5       1.0  0.002439311558750242  0.008103803660820195  0.999591810998062  1.0000
  Au  Au6       1.0  0.007855977997259294  0.0018538037300651093  0.9994684635632607  1.0000
  Cu  Cu1       1.0  0.0017805723119065807  0.005463848221750712  0.9998420928428725  1.0000
  Cu  Cu2       1.0  0.006930058464142355  0.009493080998291412  0.9997140635348749  1.0000
  Cu  Cu3       1.0  0.005960536952255276  0.0019910736366928294  0.9999401385798383  1.0000
  Cu  Cu4       1.0  0.007855978059543923  0.006853803466934434  0.9994684634999946  1.0000
  Cu  Cu5       1.0  0.003272644664581486  0.0006038038391258495  0.9993451161322798  1.0000
  Cu  Cu6       1.0  0.002439311578419072  0.0031038035777262974  0.9995918110628702  1.0000
