data_image0
_chemical_formula_structural       COAg4Au4Zn8
_chemical_formula_sum              "C1 O1 Ag4 Au4 Zn8"
_cell_length_a       4.556375503540039
_cell_length_b       6.443687915802002
_cell_length_c       106.45100402832031
_cell_angle_alpha    90.0
_cell_angle_beta     90.0
_cell_angle_gamma    90.0

_space_group_name_H-M_alt    "P 1"
_space_group_IT_number       1

loop_
  _space_group_symop_operation_xyz
  'x, y, z'

loop_
  _atom_site_type_symbol
  _atom_site_label
  _atom_site_symmetry_multiplicity
  _atom_site_fract_x
  _atom_site_fract_y
  _atom_site_fract_z
  _atom_site_occupancy
  C   C1        1.0  0.005000001488031076  0.009999983211100277  0.00014133754567022147  1.0000
  O   O1        1.0  0.005000001488031076  0.009999983211100277  0.00025406569162084657  1.0000
  Ag  Ag1       1.0  0.009999992347268753  0.009999992461182768  0.9997657584750701  1.0000
  Ag  Ag2       1.0  1.3499999572677814e-09  8.200000204299171e-09  0.9993398653278538  1.0000
  Ag  Ag3       1.0  0.0050000055760285374  0.005000062137429141  0.0  1.0000
  Ag  Ag4       1.0  0.005000001488031076  0.005000008371324655  0.99955387813983  1.0000
  Au  Au1       1.0  0.005000001488031076  0.009999983211100277  0.9999786293187377  1.0000
  Au  Au2       1.0  0.005000001488031076  8.200000204299171e-09  0.99955387813983  1.0000
  Au  Au3       1.0  1.3499999572677814e-09  0.005000008371324655  0.9993398653278538  1.0000
  Au  Au4       1.0  0.00999999888806469  0.0050000037462834095  0.9997673626619806  1.0000
  Zn  Zn1       1.0  3.449999901624936e-09  0.002431115063496636  0.9999934628683487  1.0000
  Zn  Zn2       1.0  1.3499999572677814e-09  0.002500008232573418  0.99955387813983  1.0000
  Zn  Zn3       1.0  3.349999955327929e-09  0.007568905436998687  0.9999934656679768  1.0000
  Zn  Zn4       1.0  1.3499999572677814e-09  0.007500008510075893  0.99955387813983  1.0000
  Zn  Zn5       1.0  0.005000001488031076  0.007500008510075893  0.9993398653278538  1.0000
  Zn  Zn6       1.0  0.004999996991233869  0.0074186482532551225  0.9997773567744299  1.0000
  Zn  Zn7       1.0  0.005000001488031076  0.002500008232573418  0.9993398653278538  1.0000
  Zn  Zn8       1.0  0.004999996991233869  0.002581377161346525  0.9997773618137605  1.0000
