data_image0
_chemical_formula_structural       COGa9Ni15
_chemical_formula_sum              "C1 O1 Ga9 Ni15"
_cell_length_a       6.360887179845164
_cell_length_b       5.117512912838119
_cell_length_c       106.50243377685547
_cell_angle_alpha    86.56935899330598
_cell_angle_beta     87.67488170088635
_cell_angle_gamma    94.9248704535501

_space_group_name_H-M_alt    "P 1"
_space_group_IT_number       1

loop_
  _space_group_symop_operation_xyz
  'x, y, z'

loop_
  _atom_site_type_symbol
  _atom_site_label
  _atom_site_symmetry_multiplicity
  _atom_site_fract_x
  _atom_site_fract_y
  _atom_site_fract_z
  _atom_site_occupancy
  C   C1        1.0  0.004853200117708379  0.008939922957817632  4.6884524308140504e-05  1.0000
  O   O1        1.0  0.004853200117708379  0.008939922957817632  0.00015955823412999858  1.0000
  Ga  Ga1       1.0  0.0014573457120613145  0.006688039486649274  0.9996062405572028  1.0000
  Ga  Ga2       1.0  0.004790678721748388  0.006688039626030957  0.9998918557003487  1.0000
  Ga  Ga3       1.0  0.008124011878547398  0.006688039416984444  0.999320625804813  1.0000
  Ga  Ga4       1.0  0.005209320748648641  0.001060076677828214  0.9994454978957051  1.0000
  Ga  Ga5       1.0  0.008542654199671523  0.001060076706284839  0.9997311124784454  1.0000
  Ga  Ga6       1.0  0.0018759875918496316  0.0010600766589821582  0.9991598827525692  1.0000
  Ga  Ga7       1.0  0.004999999882310451  0.003874057963026187  0.999668676518386  1.0000
  Ga  Ga8       1.0  0.008333333333333333  0.00387405815100761  0.9999542916603228  1.0000
  Ga  Ga9       1.0  0.001666666578399505  0.003874058155872787  0.999383061934653  1.0000
  Ni  Ni1       1.0  0.0018338701800951383  0.0016248634739708962  0.9995901096689584  1.0000
  Ni  Ni2       1.0  0.005167203189782212  0.0016248634310385252  0.9998757248126285  1.0000
  Ni  Ni3       1.0  0.008500536640805094  0.0016248634822844073  0.999304494635804  1.0000
  Ni  Ni4       1.0  0.004832796280614817  0.006123252827242133  0.9994616287835563  1.0000
  Ni  Ni5       1.0  0.008166129437413827  0.006123252618195621  0.9997472439273476  1.0000
  Ni  Ni6       1.0  0.0014994631238158078  0.006123252671660536  0.999176013920641  1.0000
  Ni  Ni7       1.0  0.004999999882310451  0.00887405810887743  0.9996686766914598  1.0000
  Ni  Ni8       1.0  0.008333333333333333  0.008874058296858854  0.9999542918333966  1.0000
  Ni  Ni9       1.0  0.001666666578399505  0.008874057937095921  0.9993830615491199  1.0000
  Ni  Ni10      1.0  0.001666666578399505  0.008874057937095921  0.9998114843486111  1.0000
  Ni  Ni11      1.0  0.004999999882310451  0.00887405810887743  0.9992402541717963  1.0000
  Ni  Ni12      1.0  0.008333333333333333  0.008874058296858854  0.9995258690339054  1.0000
  Ni  Ni13      1.0  0.008333333333333333  0.00387405815100761  0.9995258694204869  1.0000
  Ni  Ni14      1.0  0.001666666578399505  0.003874058155872787  0.9998114841744888  1.0000
  Ni  Ni15      1.0  0.004999999882310451  0.003874057963026187  0.9992402542785501  1.0000
