data_image0
_chemical_formula_structural       COAu24Pd8
_chemical_formula_sum              "C1 O1 Au24 Pd8"
_cell_length_a       5.854583740234375
_cell_length_b       7.170371534993127
_cell_length_c       103.88585662841797
_cell_angle_alpha    94.04469114045871
_cell_angle_beta     90.0
_cell_angle_gamma    90.0

_space_group_name_H-M_alt    "P 1"
_space_group_IT_number       1

loop_
  _space_group_symop_operation_xyz
  'x, y, z'

loop_
  _atom_site_type_symbol
  _atom_site_label
  _atom_site_symmetry_multiplicity
  _atom_site_fract_x
  _atom_site_fract_y
  _atom_site_fract_z
  _atom_site_occupancy
  C   C1        1.0  0.005000001412593078  0.008409386032152468  8.850145730925748e-05  1.0000
  O   O1        1.0  0.005000001412593078  0.008409386032152468  0.0002040125105315659  1.0000
  Au  Au1       1.0  2.299999975456298e-09  0.009374999374996083  0.9988864316475468  1.0000
  Au  Au2       1.0  0.00500000236704786  0.002875000047916967  0.9990495236223934  1.0000
  Au  Au3       1.0  2.299999975456298e-09  0.006374999845832367  0.9992126151798792  1.0000
  Au  Au4       1.0  0.00500000236704786  0.009874999383329468  0.9993757067360973  1.0000
  Au  Au5       1.0  0.007500002596117008  0.006124999841665674  0.9989679774921661  1.0000
  Au  Au6       1.0  0.002500002297054509  0.009624999899999372  0.9991310693377955  1.0000
  Au  Au7       1.0  0.007500002596117008  0.0031250000520836596  0.9992941610232309  1.0000
  Au  Au8       1.0  0.002500002297054509  0.002625000043750274  0.9988048859346803  1.0000
  Au  Au9       1.0  0.002500002297054509  0.006124999841665674  0.9989679774921661  1.0000
  Au  Au10      1.0  0.007500002596117008  0.009624999899999372  0.9991310693377955  1.0000
  Au  Au11      1.0  0.002500002297054509  0.0031250000520836596  0.9992941610232309  1.0000
  Au  Au12      1.0  0.007500002596117008  0.002625000043750274  0.9988048859346803  1.0000
  Au  Au13      1.0  2.299999975456298e-09  0.0033750000562503524  0.9995387989978197  1.0000
  Au  Au14      1.0  0.00500000236704786  0.006874999854165753  0.9997018902684299  1.0000
  Au  Au15      1.0  2.400000046944464e-09  0.0003477756819984405  0.9998799103861723  1.0000
  Au  Au16      1.0  0.004999999503683514  0.003948513806519854  1.922298628664456e-05  1.0000
  Au  Au17      1.0  0.007500002596117008  0.00012499999394527454  0.9996203445529882  1.0000
  Au  Au18      1.0  0.002499625287415605  0.0035540214906180077  0.999780654124089  1.0000
  Au  Au19      1.0  0.007500631263666775  0.007179711138689802  0.9999475364604179  1.0000
  Au  Au20      1.0  0.002500002297054509  0.006624999849999059  0.9994572528675925  1.0000
  Au  Au21      1.0  0.002500002297054509  0.00012499999394527454  0.9996203445529882  1.0000
  Au  Au22      1.0  0.007500376742391565  0.003554022011454605  0.9997806535528733  1.0000
  Au  Au23      1.0  0.0024993701298372077  0.007179710617853205  0.9999475364578823  1.0000
  Au  Au24      1.0  0.007500002596117008  0.006624999849999059  0.9994572528675925  1.0000
  Pd  Pd1       1.0  2.299999975456298e-09  0.009874999383329468  0.9993757067360973  1.0000
  Pd  Pd2       1.0  0.00500000236704786  0.009374999374996083  0.9988864316475468  1.0000
  Pd  Pd3       1.0  2.299999975456298e-09  0.002875000047916967  0.9990495236223934  1.0000
  Pd  Pd4       1.0  0.00500000236704786  0.006374999845832367  0.9992126151798792  1.0000
  Pd  Pd5       1.0  0.009999997734760652  0.0039799640036077555  1.3748746056449357e-05  1.0000
  Pd  Pd6       1.0  0.00500000236704786  0.0033750000562503524  0.9995387989978197  1.0000
  Pd  Pd7       1.0  2.299999975456298e-09  0.006874999854165753  0.9997018902684299  1.0000
  Pd  Pd8       1.0  0.00500000236704786  0.00035631710922263445  0.9998690024996325  1.0000
