data_image0
_chemical_formula_structural       COAl8Sb8Al8Sb8
_chemical_formula_sum              "C1 O1 Al16 Sb16"
_cell_length_a       7.680716514587402
_cell_length_b       15.213596357378586
_cell_length_c       101.04124450683594
_cell_angle_alpha    98.38014263894786
_cell_angle_beta     90.0
_cell_angle_gamma    75.37868463450307

_space_group_name_H-M_alt    "P 1"
_space_group_IT_number       1

loop_
  _space_group_symop_operation_xyz
  'x, y, z'

loop_
  _atom_site_type_symbol
  _atom_site_label
  _atom_site_symmetry_multiplicity
  _atom_site_fract_x
  _atom_site_fract_y
  _atom_site_fract_z
  _atom_site_occupancy
  C   C1        1.0  0.004046161084951322  0.00247383886682343  0.00018075563259444165  1.0000
  O   O1        1.0  0.004046161084951322  0.00247383886682343  0.00029951925607577364  1.0000
  Al  Al1       1.0  0.004427406060345625  0.007423209149352823  0.9997016314056852  1.0000
  Al  Al2       1.0  0.006927405968192328  0.0024232093336594165  0.9995919122549564  1.0000
  Al  Al3       1.0  0.001927406065196046  0.0024232093336594165  0.9993724738274289  1.0000
  Al  Al4       1.0  0.009427406448360497  0.007423209149352823  0.9994821929781578  1.0000
  Al  Al5       1.0  0.006510739893787225  0.009923209313180905  0.999756490986667  1.0000
  Al  Al6       1.0  0.00901073980163393  0.0049232094974874996  0.999646771835938  1.0000
  Al  Al7       1.0  0.004010739413619056  0.0049232094974874996  0.9994273334084105  1.0000
  Al  Al8       1.0  0.0015107395057723527  0.009923209313180905  0.9995370525591395  1.0000
  Sb  Sb1       1.0  0.0034892604138705074  0.009299500442303058  0.9997428044246395  1.0000
  Sb  Sb2       1.0  0.005989260321717211  0.004299500626609652  0.9996330852739105  1.0000
  Sb  Sb3       1.0  0.0009892604187209284  0.004299500626609652  0.9994136468463831  1.0000
  Sb  Sb4       1.0  0.00848926080188538  0.009299500442303058  0.999523365997112  1.0000
  Sb  Sb5       1.0  0.008072594411140192  0.006799500278474975  0.9996879448436577  1.0000
  Sb  Sb6       1.0  0.0005725938427257469  0.0017995005907722587  0.9995782256957375  1.0000
  Sb  Sb7       1.0  0.005572593866976676  0.0017995005907722587  0.99935878726821  1.0000
  Sb  Sb8       1.0  0.0030725940231253186  0.006799500278474975  0.9994685064161303  1.0000
  Al  Al9       1.0  0.004513171857196394  0.007644536793788739  9.209699154511889e-05  1.0000
  Al  Al10      1.0  0.007454431241397965  0.002647689132804876  0.999974177735441  1.0000
  Al  Al11      1.0  0.001927406065196046  0.0024232093336594165  0.9998113503875318  1.0000
  Al  Al12      1.0  0.009346027547034924  0.007515581054140659  0.9999177856250788  1.0000
  Al  Al13      1.0  0.006747014066077044  0.008937276550781888  0.00015187999728236162  1.0000
  Al  Al14      1.0  0.008178346805780768  0.00518015336716842  1.8634139472899997e-05  1.0000
  Al  Al15      1.0  0.004010739413619056  0.0049232094974874996  0.9998662099685134  1.0000
  Al  Al16      1.0  0.0016044728636394254  7.679064618204959e-05  0.9999831886377879  1.0000
  Sb  Sb9       1.0  0.0032102791604839693  0.009371992321181155  0.00020565741520440651  1.0000
  Sb  Sb10      1.0  0.005717550798767164  0.004368007899331444  8.837910157437028e-05  1.0000
  Sb  Sb11      1.0  0.0009892604187209284  0.004299500626609652  0.9998525234064859  1.0000
  Sb  Sb12      1.0  0.008622863983719493  0.009374315608183251  0.9999606442402783  1.0000
  Sb  Sb13      1.0  0.00803095054270646  0.006981002339858212  0.00014125027618150317  1.0000
  Sb  Sb14      1.0  0.0008171518089133561  0.001941466840024629  4.0537375970502786e-05  1.0000
  Sb  Sb15      1.0  0.005572593866976676  0.0017995005907722587  0.9997976638283128  1.0000
  Sb  Sb16      1.0  0.0029452805398904594  0.006780892991985071  0.9999017324782666  1.0000
