data_image0
_chemical_formula_structural       CONi2As2Ni2As2Ni2As2Ni2As2Ni2As2Ni2As2
_chemical_formula_sum              "C1 O1 Ni12 As12"
_cell_length_a       7.359626859005805
_cell_length_b       5.085370063781738
_cell_length_c       106.79813385009766
_cell_angle_alpha    90.0
_cell_angle_beta     119.99999960002835
_cell_angle_gamma    90.0

_space_group_name_H-M_alt    "P 1"
_space_group_IT_number       1

loop_
  _space_group_symop_operation_xyz
  'x, y, z'

loop_
  _atom_site_type_symbol
  _atom_site_label
  _atom_site_symmetry_multiplicity
  _atom_site_fract_x
  _atom_site_fract_y
  _atom_site_fract_z
  _atom_site_occupancy
  C   C1        1.0  0.0062498138998379376  0.001288555018327124  0.00032163011256602404  1.0000
  O   O1        1.0  0.0062498138998379376  0.001288555018327124  0.00043399185416291705  1.0000
  Ni  Ni1       1.0  0.00010895030404359461  0.0012499999706979807  0.9994753685347786  1.0000
  Ni  Ni2       1.0  0.00010895030404359461  0.006249999853489904  0.9994753685347786  1.0000
  As  As1       1.0  0.003442283709341697  0.003749999912093942  0.9992456634474416  1.0000
  As  As2       1.0  0.0017756169199330894  0.008749999794885865  0.9993605159881207  1.0000
  Ni  Ni3       1.0  0.00010895030404359461  0.0012499999706979807  0.9998199262364762  1.0000
  Ni  Ni4       1.0  0.00010895030404359461  0.006249999853489904  0.9998199262364762  1.0000
  As  As3       1.0  0.003442283709341697  0.003749999912093942  0.9995902211491392  1.0000
  As  As4       1.0  0.0017756169199330894  0.008749999794885865  0.9997050736898183  1.0000
  Ni  Ni5       1.0  0.009891049436956298  0.001288555018327124  0.00013436112687393881  1.0000
  Ni  Ni6       1.0  0.00989092669501524  0.006211056737242183  0.0001343418288509093  1.0000
  As  As5       1.0  0.0033735701405525685  0.0037499863599099992  0.9999253261194154  1.0000
  As  As6       1.0  0.0018894599241437036  0.008749963899912179  6.510282219970813e-05  1.0000
  Ni  Ni7       1.0  0.005108950352628946  0.0012499999706979807  0.9994753686034253  1.0000
  Ni  Ni8       1.0  0.005108950352628946  0.006249999853489904  0.9994753686034253  1.0000
  As  As7       1.0  0.008442283639203445  0.003749999912093942  0.9992456632329447  1.0000
  As  As8       1.0  0.006775616995916196  0.008749999794885865  0.9993605160577115  1.0000
  Ni  Ni9       1.0  0.005108950352628946  0.0012499999706979807  0.999819926305123  1.0000
  Ni  Ni10      1.0  0.005108950352628946  0.006249999853489904  0.999819926305123  1.0000
  As  As9       1.0  0.008442283639203445  0.003749999912093942  0.9995902212136952  1.0000
  As  As10      1.0  0.006775616995916196  0.008749999794885865  0.9997050737594091  1.0000
  Ni  Ni11      1.0  0.004891049799337266  0.001288555018327124  0.00013436107238737785  1.0000
  Ni  Ni12      1.0  0.004890927349638924  0.006211056737242183  0.00013434178443380015  1.0000
  As  As11      1.0  0.008373570362657033  0.0037499863599099992  0.9999253261940408  1.0000
  As  As12      1.0  0.006889460146248169  0.008749963899912179  6.51028968251727e-05  1.0000
