data_image0
_chemical_formula_structural       COPd6V3Pd6V3
_chemical_formula_sum              "C1 O1 Pd12 V6"
_cell_length_a       4.803231080843185
_cell_length_b       5.513415758484167
_cell_length_c       101.35564422607422
_cell_angle_alpha    92.51946123606966
_cell_angle_beta     91.62884518753192
_cell_angle_gamma    73.32372307982158

_space_group_name_H-M_alt    "P 1"
_space_group_IT_number       1

loop_
  _space_group_symop_operation_xyz
  'x, y, z'

loop_
  _atom_site_type_symbol
  _atom_site_label
  _atom_site_symmetry_multiplicity
  _atom_site_fract_x
  _atom_site_fract_y
  _atom_site_fract_z
  _atom_site_occupancy
  C   C1        1.0  0.0012118457558554364  0.0037341944694247735  0.00012413232926801793  1.0000
  O   O1        1.0  0.0012118457558554364  0.0037341944694247735  0.0002425269663469784  1.0000
  Pd  Pd1       1.0  0.0038529835140039604  0.00047613778904304294  6.328713324536666e-06  1.0000
  Pd  Pd2       1.0  0.008446313853578642  0.0017468498553788857  0.9998997817046199  1.0000
  Pd  Pd3       1.0  0.007182926768280852  0.004375353040673039  0.9996719217571569  1.0000
  Pd  Pd4       1.0  0.001784553195837576  0.0006349735321551402  0.9995605848228793  1.0000
  Pd  Pd5       1.0  0.0005162600321112811  0.003264241961925072  0.999328185455971  1.0000
  Pd  Pd6       1.0  0.005117886437400084  0.004523862617898466  0.9992168485257322  1.0000
  V   V1        1.0  0.002865792332978999  0.0030364698670968617  0.9997922987803393  1.0000
  V   V2        1.0  0.006150406602840468  0.0019496075452266678  0.9994443851822981  1.0000
  V   V3        1.0  0.009483739844402976  0.0008384964855587948  0.9991006489678688  1.0000
  Pd  Pd7       1.0  0.0038529835140039604  0.005476138188078424  6.328631213226173e-06  1.0000
  Pd  Pd8       1.0  0.008446313853578642  0.006746850085331479  0.9998997816221044  1.0000
  Pd  Pd9       1.0  0.007182926768280852  0.009375353608791208  0.9996719216754499  1.0000
  Pd  Pd10      1.0  0.001784553195837576  0.005634974015731916  0.9995605847409702  1.0000
  Pd  Pd11      1.0  0.0005162600321112811  0.008264242530043242  0.999328185374264  1.0000
  Pd  Pd12      1.0  0.005117886437400084  0.009523862509685482  0.999216848442408  1.0000
  V   V4        1.0  0.002865792332978999  0.008036470435215031  0.9997922986986322  1.0000
  V   V5        1.0  0.006150406602840468  0.006949608113344837  0.9994443851005911  1.0000
  V   V6        1.0  0.009483739844402976  0.005838496715511387  0.9991006488853531  1.0000
