data_image0
_chemical_formula_structural       HIn36Co12
_chemical_formula_sum              "H1 In36 Co12"
_cell_length_a       15.558777270598325
_cell_length_b       7.2056474685668945
_cell_length_c       109.3609390258789
_cell_angle_alpha    90.0
_cell_angle_beta     108.43494882292202
_cell_angle_gamma    90.0

_space_group_name_H-M_alt    "P 1"
_space_group_IT_number       1

loop_
  _space_group_symop_operation_xyz
  'x, y, z'

loop_
  _atom_site_type_symbol
  _atom_site_label
  _atom_site_symmetry_multiplicity
  _atom_site_fract_x
  _atom_site_fract_y
  _atom_site_fract_z
  _atom_site_occupancy
  H   H1        1.0  0.0077137160373890856  0.0020735241716765915  0.00024411828457776298  1.0000
  In  In1       1.0  0.006347229877225114  0.00122057242197051  0.9997494346158837  1.0000
  In  In2       1.0  0.003013896422747019  0.00122057242197051  4.936619023735868e-05  1.0000
  In  In3       1.0  0.00968056383647305  0.00122057242197051  0.999449503336753  1.0000
  In  In4       1.0  0.006347229877225114  0.006220572385780797  0.9997494346158837  1.0000
  In  In5       1.0  0.003013896422747019  0.006220572385780797  4.936619023735868e-05  1.0000
  In  In6       1.0  0.00968056383647305  0.006220572385780797  0.999449503336753  1.0000
  In  In7       1.0  0.00968056383647305  0.006220572385780797  0.9998994003576417  1.0000
  In  In8       1.0  0.006347229877225114  0.006220572385780797  0.9992995375949951  1.0000
  In  In9       1.0  0.003013896422747019  0.006220572385780797  0.9995994688968353  1.0000
  In  In10      1.0  0.00968056383647305  0.00122057242197051  0.9998994003576417  1.0000
  In  In11      1.0  0.006347229877225114  0.00122057242197051  0.9992995375949951  1.0000
  In  In12      1.0  0.003013896422747019  0.00122057242197051  0.9995994688968353  1.0000
  In  In13      1.0  0.008013896604464162  0.008661717488219773  0.9997381893273208  1.0000
  In  In14      1.0  0.0046805631499860665  0.008661717488219773  3.812090167446422e-05  1.0000
  In  In15      1.0  0.001347229947892892  0.008661717488219773  0.9994382579005787  1.0000
  In  In16      1.0  0.006986103435917425  0.003661717395160508  3.126273836682548e-06  1.0000
  In  In17      1.0  0.0036527702338242504  0.003661717395160508  0.9994032632727409  1.0000
  In  In18      1.0  0.00031943687399050067  0.003661717395160508  0.9997031948513525  1.0000
  In  In19      1.0  0.009041689773010899  0.003661717395160508  9.560651540814943e-05  1.0000
  In  In20      1.0  0.005708356318532803  0.003661717395160508  0.9994957435029577  1.0000
  In  In21      1.0  0.002375022864054708  0.003661717395160508  0.9997956750773113  1.0000
  In  In22      1.0  0.009041689773010899  0.008779427117903128  9.560651540814943e-05  1.0000
  In  In23      1.0  0.005708356318532803  0.008779427117903128  0.9994957435029577  1.0000
  In  In24      1.0  0.002375022864054708  0.008779427117903128  0.9997956750773113  1.0000
  In  In25      1.0  0.006986103435917425  0.008779427117903128  3.126273836682548e-06  1.0000
  In  In26      1.0  0.0036527702338242504  0.008779427117903128  0.9994032632727409  1.0000
  In  In27      1.0  0.00031943687399050067  0.008779427117903128  0.9997031948513525  1.0000
  In  In28      1.0  0.008013896604464162  0.008661717488219773  0.9994607488751198  1.0000
  In  In29      1.0  0.0046805631499860665  0.008661717488219773  0.9997606804494735  1.0000
  In  In30      1.0  0.001347229947892892  0.008661717488219773  6.0611490154978535e-05  1.0000
  In  In31      1.0  0.008013896604464162  0.0037794272833418198  0.9997381893273208  1.0000
  In  In32      1.0  0.0046805631499860665  0.0037794272833418198  3.812090167446422e-05  1.0000
  In  In33      1.0  0.001347229947892892  0.0037794272833418198  0.9994382579005787  1.0000
  In  In34      1.0  0.008013896604464162  0.0037794272833418198  0.9994607488751198  1.0000
  In  In35      1.0  0.0046805631499860665  0.0037794272833418198  0.9997606804494735  1.0000
  In  In36      1.0  0.001347229947892892  0.0037794272833418198  6.0611490154978535e-05  1.0000
  Co  Co1       1.0  0.008013896604464162  0.00122057242197051  0.9999134677723664  1.0000
  Co  Co2       1.0  0.0046805631499860665  0.00122057242197051  0.999313604759916  1.0000
  Co  Co3       1.0  0.001347229947892892  0.00122057242197051  0.9996135363456243  1.0000
  Co  Co4       1.0  0.005687450266037127  0.006220572385780797  0.9999447002390354  1.0000
  Co  Co5       1.0  0.002354116811559032  0.006220572385780797  0.9993448372265848  1.0000
  Co  Co6       1.0  0.00902078321574538  0.006220572385780797  0.9996447686419724  1.0000
  Co  Co7       1.0  0.0003403430526786367  0.006220572385780797  0.00015403270775625531  1.0000
  Co  Co8       1.0  0.007007009993182942  0.006220572385780797  0.9995541695604684  1.0000
  Co  Co9       1.0  0.0036736765387048466  0.006220572385780797  0.999854101134822  1.0000
  Co  Co10      1.0  0.008013896604464162  0.00122057242197051  0.9992854707025877  1.0000
  Co  Co11      1.0  0.0046805631499860665  0.00122057242197051  0.9995854020044278  1.0000
  Co  Co12      1.0  0.001347229947892892  0.00122057242197051  0.9998853335901362  1.0000
