data_image0
_chemical_formula_structural       HRu4Zn12Ru4Zn12
_chemical_formula_sum              "H1 Ru8 Zn24"
_cell_length_a       7.651136095171112
_cell_length_b       8.313923839901479
_cell_length_c       99.81072998046875
_cell_angle_alpha    87.55307252925371
_cell_angle_beta     86.32113029834225
_cell_angle_gamma    76.6988098355974

_space_group_name_H-M_alt    "P 1"
_space_group_IT_number       1

loop_
  _space_group_symop_operation_xyz
  'x, y, z'

loop_
  _atom_site_type_symbol
  _atom_site_label
  _atom_site_symmetry_multiplicity
  _atom_site_fract_x
  _atom_site_fract_y
  _atom_site_fract_z
  _atom_site_occupancy
  H   H1        1.0  0.004095751985629647  0.0014014778613566869  1.75663180124885e-05  1.0000
  Ru  Ru1       1.0  0.0008718527635128232  0.0028051379122015223  0.9995133965413855  1.0000
  Ru  Ru2       1.0  0.004701259759988569  0.0071948622996838955  0.9996008025516967  1.0000
  Ru  Ru3       1.0  0.0008974167063392192  0.0015318316125731673  0.9998666917667247  1.0000
  Ru  Ru4       1.0  0.004713443672097014  0.005975775405555322  0.9999485875194741  1.0000
  Zn  Zn1       1.0  0.0021416877674450773  0.008043257038074462  0.9994185803015514  1.0000
  Zn  Zn2       1.0  0.0034314243514096286  0.003206743920016122  0.999322277977198  1.0000
  Zn  Zn3       1.0  0.00028655625662457336  0.005625000018424819  0.9993704291885634  1.0000
  Zn  Zn4       1.0  0.0027865561721997123  0.005000000221097827  0.9995570996958663  1.0000
  Zn  Zn5       1.0  0.00403655648707971  0.0003125000138186142  0.9994637643792933  1.0000
  Zn  Zn6       1.0  0.0015365562704278202  0.0009375000414558425  0.9992770941712408  1.0000
  Zn  Zn7       1.0  0.0021065812936257285  0.0069053033733396585  0.9997984959711612  1.0000
  Zn  Zn8       1.0  0.0034282308345141587  0.001977431942330258  0.9996954886678527  1.0000
  Zn  Zn9       1.0  0.00029083497592669836  0.004361746530297065  0.9997421269809941  1.0000
  Zn  Zn10      1.0  0.0027834972995624723  0.003703852212862021  0.9999485442278662  1.0000
  Zn  Zn11      1.0  0.003996987231237129  0.00915353570358458  0.9998658552653207  1.0000
  Zn  Zn12      1.0  0.0015365560155785054  0.009687500773842395  0.9996504347118438  1.0000
  Ru  Ru5       1.0  0.005871852719601902  0.0028051379122015223  0.9995133967431485  1.0000
  Ru  Ru6       1.0  0.00970125983805243  0.0071948622996838955  0.9996008027528599  1.0000
  Ru  Ru7       1.0  0.005897416662428297  0.0015318316125731673  0.9998666916698994  1.0000
  Ru  Ru8       1.0  0.009713444238060007  0.005975775405555322  0.9999485874196492  1.0000
  Zn  Zn13      1.0  0.007141688333408072  0.008043257038074462  0.9994185805003147  1.0000
  Zn  Zn14      1.0  0.008431424917372624  0.003206743920016122  0.9993222781759613  1.0000
  Zn  Zn15      1.0  0.005286556212713652  0.005625000018424819  0.9993704293903265  1.0000
  Zn  Zn16      1.0  0.007786556494213141  0.005000000221097827  0.9995570995972411  1.0000
  Zn  Zn17      1.0  0.009036556077244438  0.0003125000138186142  0.9994637645828564  1.0000
  Zn  Zn18      1.0  0.006536556226516899  0.0009375000414558425  0.9992770940744155  1.0000
  Zn  Zn19      1.0  0.007106580883790456  0.0069053033733396585  0.9997984958761358  1.0000
  Zn  Zn20      1.0  0.00842823091257802  0.001977431942330258  0.9996954885704276  1.0000
  Zn  Zn21      1.0  0.005290835175965344  0.004361746530297065  0.9997421268829689  1.0000
  Zn  Zn22      1.0  0.0077834976215759  0.003703852212862021  0.9999485441292411  1.0000
  Zn  Zn23      1.0  0.00899698730930099  0.00915353570358458  0.9998658551678955  1.0000
  Zn  Zn24      1.0  0.0065365558496928  0.009687500773842395  0.9996504346156184  1.0000
