data_image0
_chemical_formula_structural       Pd8V4H
_chemical_formula_sum              "Pd8 V4 H1"
_cell_length_a       4.7162191155446465
_cell_length_b       4.803233266832557
_cell_length_c       38.36421585083008
_cell_angle_alpha    93.90829480007874
_cell_angle_beta     90.85349780266172
_cell_angle_gamma    81.05585029632114

_space_group_name_H-M_alt    "P 1"
_space_group_IT_number       1

loop_
  _space_group_symop_operation_xyz
  'x, y, z'

loop_
  _atom_site_type_symbol
  _atom_site_label
  _atom_site_symmetry_multiplicity
  _atom_site_fract_x
  _atom_site_fract_y
  _atom_site_fract_z
  _atom_site_occupancy
  Pd  Pd1       1.0  0.008769304173126066  0.0037890383940268465  0.9988376450487682  1.0000
  Pd  Pd2       1.0  0.002519304275795007  0.0012890381933732427  0.998322259339479  1.0000
  Pd  Pd3       1.0  0.007959548319020446  0.008647574660388974  0.9985037757835004  1.0000
  Pd  Pd4       1.0  0.004209548382781546  0.0011475742551473834  0.9990191611189314  1.0000
  Pd  Pd5       1.0  0.001354075096078098  0.008852426252388202  0.9998943593090823  1.0000
  Pd  Pd6       1.0  0.0050193040615867345  0.006289038299601621  0.9993530306739563  1.0000
  Pd  Pd7       1.0  0.00038557362960976016  0.0037060358668804753  0.9995315010741553  1.0000
  Pd  Pd8       1.0  0.006842167362866203  0.006264176924645447  6.598558757954425e-05  1.0000
  V   V1        1.0  0.009614425896893805  0.008718306236063466  0.9991860958857853  1.0000
  V   V2        1.0  0.003364426150628959  0.006218306330488691  0.9986707101792909  1.0000
  V   V3        1.0  0.002607919781469684  0.003657721233141068  0.00011313629682203728  1.0000
  V   V4        1.0  0.005837612032743093  0.0013261960932998277  0.9997147113442425  1.0000
  H   H1        1.0  0.005837612032743093  0.0013261960932998277  0.00010570071450276522  1.0000
