data_image0
_chemical_formula_structural       COAs12Ru6As12Ru6
_chemical_formula_sum              "C1 O1 As24 Ru12"
_cell_length_a       6.273108959197998
_cell_length_b       8.186903080183864
_cell_length_c       107.73212432861328
_cell_angle_alpha    76.441765521543
_cell_angle_beta     90.0
_cell_angle_gamma    90.0

_space_group_name_H-M_alt    "P 1"
_space_group_IT_number       1

loop_
  _space_group_symop_operation_xyz
  'x, y, z'

loop_
  _atom_site_type_symbol
  _atom_site_label
  _atom_site_symmetry_multiplicity
  _atom_site_fract_x
  _atom_site_fract_y
  _atom_site_fract_z
  _atom_site_occupancy
  C   C1        1.0  0.009673119833451193  0.008262805647536186  0.9999672325096082  1.0000
  O   O1        1.0  0.009673119833451193  0.008262805647536186  7.862012396630902e-05  1.0000
  As  As1       1.0  0.001673725805856383  0.004003822043361601  0.9988408195283035  1.0000
  As  As2       1.0  0.001673725805856383  0.0006704888052034569  0.9990353975949037  1.0000
  As  As3       1.0  0.001673725805856383  0.00733715563257577  0.999229975361572  1.0000
  As  As4       1.0  0.00898003546552538  0.002864350122915667  0.9987077899208896  1.0000
  As  As5       1.0  0.00898003546552538  0.009531016599231956  0.9989023676938122  1.0000
  As  As6       1.0  0.00898003546552538  0.0061976834780924864  0.9990969457583275  1.0000
  As  As7       1.0  0.006673725912749514  0.002864350122915667  0.9989996565973174  1.0000
  As  As8       1.0  0.006673725912749514  0.009531016599231956  0.9991942349235071  1.0000
  As  As9       1.0  0.006673725912749514  0.0061976834780924864  0.9988050790818997  1.0000
  As  As10      1.0  0.003980035358632249  0.0006704888052034569  0.9987435306418423  1.0000
  As  As11      1.0  0.003980035358632249  0.00733715563257577  0.9989381086851442  1.0000
  As  As12      1.0  0.003980035358632249  0.004003822043361601  0.9991326862047313  1.0000
  Ru  Ru1       1.0  0.005326880784153562  0.003434086200157309  0.9987743047225118  1.0000
  Ru  Ru2       1.0  0.005326880784153562  0.00010075280109848669  0.9989688827919785  1.0000
  Ru  Ru3       1.0  0.005326880784153562  0.0067674193212967785  0.9991634608407528  1.0000
  Ru  Ru4       1.0  0.0003268804916820802  0.003434086200157309  0.9990661716755732  1.0000
  Ru  Ru5       1.0  0.0003268804916820802  0.00010075280109848669  0.9992607497450398  1.0000
  Ru  Ru6       1.0  0.0003268804916820802  0.0067674193212967785  0.9988715938876914  1.0000
  As  As13      1.0  0.001673725805856383  0.004003822043361601  0.9994245534344263  1.0000
  As  As14      1.0  0.0016718554730004867  0.0007192984061472332  0.9996109980969271  1.0000
  As  As15      1.0  0.001597199677669229  0.007211530000188128  0.9998145431393598  1.0000
  As  As16      1.0  0.00898003546552538  0.002864350122915667  0.9992915238270124  1.0000
  As  As17      1.0  0.00898003546552538  0.009531016599231956  0.9994861015999349  1.0000
  As  As18      1.0  0.0089144007080829  0.005927490634461849  0.9996923963566804  1.0000
  As  As19      1.0  0.006685116563490567  0.002789808290907542  0.9995913012641964  1.0000
  As  As20      1.0  0.007049090641611906  0.009208220116673273  0.9997673649827638  1.0000
  As  As21      1.0  0.006673725912749514  0.0061976834780924864  0.9993888124347553  1.0000
  As  As22      1.0  0.003980035358632249  0.0006704888052034569  0.9993272642713315  1.0000
  As  As23      1.0  0.003980035358632249  0.00733715563257577  0.9995218420379998  1.0000
  As  As24      1.0  0.0039056059688895957  0.0039980048109990755  0.9997196580052138  1.0000
  Ru  Ru7       1.0  0.005326880784153562  0.003434086200157309  0.999358038352001  1.0000
  Ru  Ru8       1.0  0.005326880784153562  0.00010075280109848669  0.9995526164214675  1.0000
  Ru  Ru9       1.0  0.005132813930586395  0.0067685712531316816  0.9997407436007971  1.0000
  Ru  Ru10      1.0  0.00042282160428982183  0.0034261907161300246  0.9996418490364389  1.0000
  Ru  Ru11      1.0  0.0003730686050372376  0.009899247220549967  0.9998236415195221  1.0000
  Ru  Ru12      1.0  0.0003268804916820802  0.0067674193212967785  0.9994553275171806  1.0000
