data_image0
_chemical_formula_structural       HAg6Ti12
_chemical_formula_sum              "H1 Ag6 Ti12"
_cell_length_a       6.584704415970116
_cell_length_b       6.4561024002425516
_cell_length_c       101.55256652832031
_cell_angle_alpha    85.58925637159076
_cell_angle_beta     88.80420767786971
_cell_angle_gamma    107.81688390419814

_space_group_name_H-M_alt    "P 1"
_space_group_IT_number       1

loop_
  _space_group_symop_operation_xyz
  'x, y, z'

loop_
  _atom_site_type_symbol
  _atom_site_label
  _atom_site_symmetry_multiplicity
  _atom_site_fract_x
  _atom_site_fract_y
  _atom_site_fract_z
  _atom_site_occupancy
  H   H1        1.0  0.00016043139834567111  0.0073148883651014875  3.4948009477044005e-05  1.0000
  Ag  Ag1       1.0  0.009596310857883227  0.0015797816687837596  0.9996774271888679  1.0000
  Ag  Ag2       1.0  0.0012760982119944962  0.0007583279931095517  0.9999405811904972  1.0000
  Ag  Ag3       1.0  0.005481985354587571  0.0011209500818177246  0.9998201692407265  1.0000
  Ag  Ag4       1.0  0.0020963105009427037  0.002829781509843968  0.9992890496932236  1.0000
  Ag  Ag5       1.0  0.0037629773460796318  0.001996448303243682  0.9995479678495083  1.0000
  Ag  Ag6       1.0  0.007929643715295863  0.002413114980455669  0.999418508739005  1.0000
  Ti  Ti1       1.0  0.00519120256783964  0.004114022104053987  4.192850939490946e-06  1.0000
  Ti  Ti2       1.0  0.009303523850099448  0.0043665283336567174  0.9998852834455504  1.0000
  Ti  Ti3       1.0  0.0034732436670184674  0.0047186165611825355  0.9997624807616753  1.0000
  Ti  Ti4       1.0  0.007344604515611722  0.007569467442684154  0.9998524100959066  1.0000
  Ti  Ti5       1.0  0.0015062353166566914  0.007991672396615777  0.9997198141669504  1.0000
  Ti  Ti6       1.0  0.003212926943698201  0.007114851807397622  0.9999608663361288  1.0000
  Ti  Ti7       1.0  0.007686385774463847  0.005167891010046588  0.9996350399559764  1.0000
  Ti  Ti8       1.0  0.001853052262660252  0.005584557427481834  0.9995055809111449  1.0000
  Ti  Ti9       1.0  0.0060197192267773545  0.006001224527539211  0.9993761217977692  1.0000
  Ti  Ti10      1.0  0.009839568798715243  0.00882500587719657  0.9994608956508537  1.0000
  Ti  Ti11      1.0  0.004006235584362083  0.009241672388499477  0.9993314366051609  1.0000
  Ti  Ti12      1.0  0.005672902132048576  0.008408338871006855  0.999590354763368  1.0000
