data_image0
_chemical_formula_structural       In12Ir4H
_chemical_formula_sum              "In12 Ir4 H1"
_cell_length_a       7.154809474945068
_cell_length_b       7.154809474945068
_cell_length_c       99.4429702758789
_cell_angle_alpha    90.0
_cell_angle_beta     90.0
_cell_angle_gamma    90.0

_space_group_name_H-M_alt    "P 1"
_space_group_IT_number       1

loop_
  _space_group_symop_operation_xyz
  'x, y, z'

loop_
  _atom_site_type_symbol
  _atom_site_label
  _atom_site_symmetry_multiplicity
  _atom_site_fract_x
  _atom_site_fract_y
  _atom_site_fract_z
  _atom_site_occupancy
  In  In1       1.0  0.003482630519070562  0.0034826294777317783  0.9994701066196946  1.0000
  In  In2       1.0  0.001677689980514802  0.008322064034437691  0.9998549062248906  1.0000
  In  In3       1.0  0.0015173968316925944  0.008482629623519209  0.9994616933493139  1.0000
  In  In4       1.0  0.009999986754170671  0.005000175090703107  6.477555872482745e-05  1.0000
  In  In5       1.0  0.008482630664857993  0.0015173959205211586  0.9994616933493139  1.0000
  In  In6       1.0  0.008322070803139785  0.0016776826911433155  0.9998549056255054  1.0000
  In  In7       1.0  0.005000178735388851  0.009999987795509455  6.477555872482745e-05  1.0000
  In  In8       1.0  0.006517396847312677  0.006517395805973893  0.9994701066196946  1.0000
  In  In9       1.0  0.006564132131929394  0.006564130569921218  0.9998319971231044  1.0000
  In  In10      1.0  1.3600000152699215e-08  0.0050000126418528355  0.9996509492266837  1.0000
  In  In11      1.0  0.003435891850102798  0.0034358902880946224  0.9998319803403188  1.0000
  In  In12      1.0  0.00500001368319162  1.274999958453786e-08  0.9996509492266837  1.0000
  Ir  Ir1       1.0  0.0014671431236601303  0.0014671381773009072  0.9999999916086072  1.0000
  Ir  Ir2       1.0  0.006550719167724723  0.0034493071573197323  0.9996509492266837  1.0000
  Ir  Ir3       1.0  0.00344930793832382  0.006550718647055331  0.9996509492266837  1.0000
  Ir  Ir4       1.0  0.008532995015136234  0.008532989287772923  0.0  1.0000
  H   H1        1.0  0.002556790785141452  0.005878977031098808  0.9999942830639482  1.0000
