data_image0
_chemical_formula_structural       COV5Rh15V5Rh15
_chemical_formula_sum              "C1 O1 V10 Rh30"
_cell_length_a       8.531961314458304
_cell_length_b       5.3960862159729
_cell_length_c       109.65296936035156
_cell_angle_alpha    90.0
_cell_angle_beta     104.96321680385945
_cell_angle_gamma    71.56505088137861

_space_group_name_H-M_alt    "P 1"
_space_group_IT_number       1

loop_
  _space_group_symop_operation_xyz
  'x, y, z'

loop_
  _atom_site_type_symbol
  _atom_site_label
  _atom_site_symmetry_multiplicity
  _atom_site_fract_x
  _atom_site_fract_y
  _atom_site_fract_z
  _atom_site_occupancy
  C   C1        1.0  0.00860525100198453  0.004197374261520821  0.00022442462918760984  1.0000
  O   O1        1.0  0.00860525100198453  0.004197374261520821  0.00033386101188381844  1.0000
  V   V1        1.0  0.004500000019132065  0.002499999918635598  9.040560339496228e-05  1.0000
  V   V2        1.0  0.008499999770415215  0.000500000042994023  0.9999698650553002  1.0000
  V   V3        1.0  0.0004999999988042459  0.004499999928799508  0.9996082423651871  1.0000
  V   V4        1.0  0.0024999999043396727  0.008499999755113735  0.9998493242539767  1.0000
  V   V5        1.0  0.006500000133924458  0.006499999640321342  0.9997287831719157  1.0000
  Rh  Rh1       1.0  0.0024999999043396727  0.0034999999760317946  0.9998493242539767  1.0000
  Rh  Rh2       1.0  0.006500000133924458  0.0014999998612394013  0.9997287831719157  1.0000
  Rh  Rh3       1.0  0.008499999770415215  0.005499999822075964  0.9999698650553002  1.0000
  Rh  Rh4       1.0  0.0004999999988042459  0.009499999707881448  0.9996082423651871  1.0000
  Rh  Rh5       1.0  0.004500000019132065  0.0074999996977175385  9.040560339496228e-05  1.0000
  Rh  Rh6       1.0  0.005500000076528262  0.009500000248929346  0.999909594659443  1.0000
  Rh  Rh7       1.0  0.009500000306113046  0.007500000134136954  0.9997890535773821  1.0000
  Rh  Rh8       1.0  0.0014999999665188854  0.0015000000554012177  3.01352003308921e-05  1.0000
  Rh  Rh9       1.0  0.003499999961735869  0.005499999836874666  0.9996685127664494  1.0000
  Rh  Rh10      1.0  0.007500000191320654  0.0034999997220822735  0.00015067600886131848  1.0000
  Rh  Rh11      1.0  0.005500000076528262  0.00449999977947847  0.999909594659443  1.0000
  Rh  Rh12      1.0  0.009500000306113046  0.002499999664686077  0.9997890535773821  1.0000
  Rh  Rh13      1.0  0.0014999999665188854  0.006499999834483158  3.01352003308921e-05  1.0000
  Rh  Rh14      1.0  0.003499999961735869  0.0005000000577927256  0.9996685127664494  1.0000
  Rh  Rh15      1.0  0.007500000191320654  0.00850000019153315  0.00015067600886131848  1.0000
  V   V6        1.0  0.004500000019132065  0.002499999918635598  0.9994877018224975  1.0000
  V   V7        1.0  0.008499999770415215  0.000500000042994023  0.999367161002615  1.0000
  V   V8        1.0  0.0004999999988042459  0.004499999928799508  0.9990055385842895  1.0000
  V   V9        1.0  0.0024999999043396727  0.008499999755113735  0.9992466202012915  1.0000
  V   V10       1.0  0.006500000133924458  0.006499999640321342  0.9991260793910183  1.0000
  Rh  Rh16      1.0  0.0024999999043396727  0.0034999999760317946  0.9992466202012915  1.0000
  Rh  Rh17      1.0  0.006500000133924458  0.0014999998612394013  0.9991260793910183  1.0000
  Rh  Rh18      1.0  0.008499999770415215  0.005499999822075964  0.999367161002615  1.0000
  Rh  Rh19      1.0  0.0004999999988042459  0.009499999707881448  0.9990055385842895  1.0000
  Rh  Rh20      1.0  0.004500000019132065  0.0074999996977175385  0.9994877018224975  1.0000
  Rh  Rh21      1.0  0.005500000076528262  0.009500000248929346  0.9993068906067578  1.0000
  Rh  Rh22      1.0  0.009500000306113046  0.007500000134136954  0.9991863497964846  1.0000
  Rh  Rh23      1.0  0.0014999999665188854  0.0015000000554012177  0.9994274314194334  1.0000
  Rh  Rh24      1.0  0.003499999961735869  0.005499999836874666  0.9990658089855519  1.0000
  Rh  Rh25      1.0  0.007500000191320654  0.0034999997220822735  0.9995479722279638  1.0000
  Rh  Rh26      1.0  0.005500000076528262  0.00449999977947847  0.9993068906067578  1.0000
  Rh  Rh27      1.0  0.009500000306113046  0.002499999664686077  0.9991863497964846  1.0000
  Rh  Rh28      1.0  0.0014999999665188854  0.006499999834483158  0.9994274314194334  1.0000
  Rh  Rh29      1.0  0.003499999961735869  0.0005000000577927256  0.9990658089855519  1.0000
  Rh  Rh30      1.0  0.007500000191320654  0.00850000019153315  0.9995479722279638  1.0000
