data_image0
_chemical_formula_structural       HCr3Si6Cr3Si6Cr3Si6Cr3Si6Cr3Si6Cr3Si6Cr3Si6Cr3Si6
_chemical_formula_sum              "H1 Cr24 Si48"
_cell_length_a       8.851668357849121
_cell_length_b       8.851668282725006
_cell_length_c       108.35639953613281
_cell_angle_alpha    90.0
_cell_angle_beta     90.0
_cell_angle_gamma    120.00000028074773

_space_group_name_H-M_alt    "P 1"
_space_group_IT_number       1

loop_
  _space_group_symop_operation_xyz
  'x, y, z'

loop_
  _atom_site_type_symbol
  _atom_site_label
  _atom_site_symmetry_multiplicity
  _atom_site_fract_x
  _atom_site_fract_y
  _atom_site_fract_z
  _atom_site_occupancy
  H   H1        1.0  0.002117519283144248  0.0012843769003147742  0.00011370310329385904  1.0000
  Cr  Cr1       1.0  0.0029154064322527095  0.00039404794417393035  0.9990113521136963  1.0000
  Cr  Cr2       1.0  0.00041540654119589105  0.0028940478506258036  0.9994046675530136  1.0000
  Cr  Cr3       1.0  0.0029154065075272973  0.0028940478506258036  0.999208009695835  1.0000
  Si  Si1       1.0  0.0012462196881127907  0.004563234847990991  0.999208009695835  1.0000
  Si  Si2       1.0  0.0020770326733557287  0.0012248610962427636  0.9994046675530136  1.0000
  Si  Si3       1.0  0.004584593353685976  0.003732421787040463  0.9990113521136963  1.0000
  Si  Si4       1.0  0.004584593553647233  0.0012248610962427636  0.999208009695835  1.0000
  Si  Si5       1.0  0.00375378046318994  0.004563234847990991  0.9994046675530136  1.0000
  Si  Si6       1.0  0.0012462197039489272  0.0020556741571932918  0.9990113521136963  1.0000
  Cr  Cr4       1.0  0.0029154064322527095  0.00039404794417393035  0.9996013248601126  1.0000
  Cr  Cr5       1.0  0.00041540698705270503  0.0028940497944829786  0.99997925979881  1.0000
  Cr  Cr6       1.0  0.002915406710401965  0.002894049308518685  0.9997957185896628  1.0000
  Si  Si7       1.0  0.0012596665009537472  0.004605952081339195  0.9997988991499026  1.0000
  Si  Si8       1.0  0.002117519283144248  0.0012843769003147742  0.9999999994499204  1.0000
  Si  Si9       1.0  0.004584593353685976  0.003732421787040463  0.9996013248601126  1.0000
  Si  Si10      1.0  0.004571145915368157  0.0011821441058767063  0.9997988991499026  1.0000
  Si  Si11      1.0  0.003713294185321203  0.004503719286901127  0.0  1.0000
  Si  Si12      1.0  0.0012462197039489272  0.0020556741571932918  0.9996013248601126  1.0000
  Cr  Cr7       1.0  0.0029154066487069364  0.005394048151923666  0.9990113521136963  1.0000
  Cr  Cr8       1.0  0.00041540640647477143  0.007894047724275087  0.9994046675530136  1.0000
  Cr  Cr9       1.0  0.0029154064780205326  0.007894047724275087  0.999208009695835  1.0000
  Si  Si13      1.0  0.0012462198853114533  0.00956323496462242  0.999208009695835  1.0000
  Si  Si14      1.0  0.0020770326438489637  0.0062248609698920465  0.9994046675530136  1.0000
  Si  Si15      1.0  0.004584593337331006  0.008732421660689747  0.9990113521136963  1.0000
  Si  Si16      1.0  0.004584593418926113  0.0062248609698920465  0.999208009695835  1.0000
  Si  Si17      1.0  0.003753780555174248  0.00956323496462242  0.9994046675530136  1.0000
  Si  Si18      1.0  0.001246219874844002  0.007055674273824722  0.9990113521136963  1.0000
  Cr  Cr10      1.0  0.0029154066487069364  0.005394048151923666  0.9996013248601126  1.0000
  Cr  Cr11      1.0  0.00041540695754593973  0.007894049668132262  0.99997925979881  1.0000
  Cr  Cr12      1.0  0.0029154066808952  0.007894049182167968  0.9997957185896628  1.0000
  Si  Si19      1.0  0.001259666382509347  0.009605952197970625  0.9997988991499026  1.0000
  Si  Si20      1.0  0.002117519375128557  0.006284377016946205  0.9999999994499204  1.0000
  Si  Si21      1.0  0.004584593337331006  0.008732421660689747  0.9996013248601126  1.0000
  Si  Si22      1.0  0.00457114590213811  0.006182144222508137  0.9997988991499026  1.0000
  Si  Si23      1.0  0.0037132940343233656  0.009503718917568264  0.0  1.0000
  Si  Si24      1.0  0.001246219874844002  0.007055674273824722  0.9996013248601126  1.0000
  Cr  Cr13      1.0  0.007915406785772941  0.00039404794417393035  0.9990113521136963  1.0000
  Cr  Cr14      1.0  0.005415406368644349  0.0028940478506258036  0.9994046675530136  1.0000
  Cr  Cr15      1.0  0.007915406334975755  0.0028940478506258036  0.999208009695835  1.0000
  Si  Si25      1.0  0.006246219725989958  0.004563234847990991  0.999208009695835  1.0000
  Si  Si26      1.0  0.007077032395589833  0.0012248610962427636  0.9994046675530136  1.0000
  Si  Si27      1.0  0.009584593707206207  0.003732421787040463  0.9990113521136963  1.0000
  Si  Si28      1.0  0.009584593065452628  0.0012248610962427636  0.999208009695835  1.0000
  Si  Si29      1.0  0.008753780395852753  0.004563234847990991  0.9994046675530136  1.0000
  Si  Si30      1.0  0.0062462195050937966  0.0020556741571932918  0.9990113521136963  1.0000
  Cr  Cr16      1.0  0.007915406785772941  0.00039404794417393035  0.9996013248601126  1.0000
  Cr  Cr17      1.0  0.005415406919715518  0.0028940497944829786  0.99997925979881  1.0000
  Cr  Cr18      1.0  0.007915406643064778  0.002894049308518685  0.9997957185896628  1.0000
  Si  Si31      1.0  0.006259666223187851  0.004605952081339195  0.9997988991499026  1.0000
  Si  Si32      1.0  0.0071175192158070616  0.0012843769003147742  0.9999999994499204  1.0000
  Si  Si33      1.0  0.009584593707206207  0.003732421787040463  0.9996013248601126  1.0000
  Si  Si34      1.0  0.00957114584803097  0.0011821441058767063  0.9997988991499026  1.0000
  Si  Si35      1.0  0.008713294117984017  0.004503719286901127  0.0  1.0000
  Si  Si36      1.0  0.0062462195050937966  0.0020556741571932918  0.9996013248601126  1.0000
  Cr  Cr19      1.0  0.007915406502458984  0.005394048151923666  0.9990113521136963  1.0000
  Cr  Cr20      1.0  0.005415406444351939  0.007894047724275087  0.9994046675530136  1.0000
  Cr  Cr21      1.0  0.00791540630546899  0.007894047724275087  0.999208009695835  1.0000
  Si  Si37      1.0  0.006246219712759912  0.00956323496462242  0.999208009695835  1.0000
  Si  Si38      1.0  0.007077032366083067  0.0062248609698920465  0.9994046675530136  1.0000
  Si  Si39      1.0  0.009584593256842024  0.008732421660689747  0.9990113521136963  1.0000
  Si  Si40      1.0  0.009584593456803282  0.0062248609698920465  0.999208009695835  1.0000
  Si  Si41      1.0  0.008753780487837062  0.00956323496462242  0.9994046675530136  1.0000
  Si  Si42      1.0  0.006246219807506816  0.007055674273824722  0.9990113521136963  1.0000
  Cr  Cr22      1.0  0.007915406502458984  0.005394048151923666  0.9996013248601126  1.0000
  Cr  Cr23      1.0  0.005415406890208752  0.007894049668132262  0.99997925979881  1.0000
  Cr  Cr24      1.0  0.007915406613558012  0.007894049182167968  0.9997957185896628  1.0000
  Si  Si43      1.0  0.006259666525600869  0.009605952197970625  0.9997988991499026  1.0000
  Si  Si44      1.0  0.007117519307791371  0.006284377016946205  0.9999999994499204  1.0000
  Si  Si45      1.0  0.009584593256842024  0.008732421660689747  0.9996013248601126  1.0000
  Si  Si46      1.0  0.009571145940015279  0.006182144222508137  0.9997988991499026  1.0000
  Si  Si47      1.0  0.008713293966986177  0.009503718917568264  0.0  1.0000
  Si  Si48      1.0  0.006246219807506816  0.007055674273824722  0.9996013248601126  1.0000
