data_image0
_chemical_formula_structural       COAl4Cu4Pd8Al4Cu4Pd8
_chemical_formula_sum              "C1 O1 Al8 Cu8 Pd16"
_cell_length_a       8.659400939941406
_cell_length_b       6.12312126159668
_cell_length_c       104.63760375976562
_cell_angle_alpha    90.0
_cell_angle_beta     90.0
_cell_angle_gamma    90.0

_space_group_name_H-M_alt    "P 1"
_space_group_IT_number       1

loop_
  _space_group_symop_operation_xyz
  'x, y, z'

loop_
  _atom_site_type_symbol
  _atom_site_label
  _atom_site_symmetry_multiplicity
  _atom_site_fract_x
  _atom_site_fract_y
  _atom_site_fract_z
  _atom_site_occupancy
  C   C1        1.0  0.003749999397717411  0.009999999707969307  0.00015365066758730913  1.0000
  O   O1        1.0  0.003749999397717411  0.009999999707969307  0.00026833185563898373  1.0000
  Al  Al1       1.0  0.0012500022370496165  0.004999999549786016  0.9997878370109209  1.0000
  Al  Al2       1.0  0.001249998795434822  0.005000000158183292  0.9993724317123841  1.0000
  Al  Al3       1.0  0.003749999397717411  0.009999999707969307  0.9999881220898779  1.0000
  Al  Al4       1.0  0.0037499989675155616  1.5000000018818206e-10  0.9995793219278661  1.0000
  Cu  Cu1       1.0  0.0012500014841963802  0.009999999707969307  0.999784092837545  1.0000
  Cu  Cu2       1.0  0.001249998795434822  1.5000000018818206e-10  0.9993724317123841  1.0000
  Cu  Cu3       1.0  0.003749999397717411  0.004999998332991463  0.0  1.0000
  Cu  Cu4       1.0  0.0037499989675155616  0.005000000158183292  0.9995793219278661  1.0000
  Pd  Pd1       1.0  0.0037499989675155616  0.002500000079091646  0.9993724317123841  1.0000
  Pd  Pd2       1.0  0.003750000688322959  0.0025468909302742847  0.9997855733040906  1.0000
  Pd  Pd3       1.0  0.0037499989675155616  0.007500000389374257  0.9993724317123841  1.0000
  Pd  Pd4       1.0  0.0037500011185248082  0.007453105735708641  0.9997855738737198  1.0000
  Pd  Pd5       1.0  0.0012500006237926816  0.007567386471705419  0.9999870352371772  1.0000
  Pd  Pd6       1.0  0.001249998795434822  0.007500000389374257  0.9995793219278661  1.0000
  Pd  Pd7       1.0  0.0012500006237926816  0.002432610954774102  0.9999870352371772  1.0000
  Pd  Pd8       1.0  0.001249998795434822  0.002500000079091646  0.9995793219278661  1.0000
  Al  Al5       1.0  0.006250002151009247  0.004999999549786016  0.9997878370109209  1.0000
  Al  Al6       1.0  0.006249998709394452  0.005000000158183292  0.9993724317123841  1.0000
  Al  Al7       1.0  0.008749999311677041  0.009999999707969307  0.9999881220898779  1.0000
  Al  Al8       1.0  0.008749999311677041  1.5000000018818206e-10  0.9995793219278661  1.0000
  Cu  Cu5       1.0  0.006250001720807397  0.009999999707969307  0.999784092837545  1.0000
  Cu  Cu6       1.0  0.006249998709394452  1.5000000018818206e-10  0.9993724317123841  1.0000
  Cu  Cu7       1.0  0.008749999311677041  0.004999998332991463  0.0  1.0000
  Cu  Cu8       1.0  0.008749999311677041  0.005000000158183292  0.9995793219278661  1.0000
  Pd  Pd9       1.0  0.008749999311677041  0.002500000079091646  0.9993724317123841  1.0000
  Pd  Pd10      1.0  0.008750001032484439  0.0025468909302742847  0.9997855733040906  1.0000
  Pd  Pd11      1.0  0.008749999311677041  0.007500000389374257  0.9993724317123841  1.0000
  Pd  Pd12      1.0  0.008750001032484439  0.007453105735708641  0.9997855738737198  1.0000
  Pd  Pd13      1.0  0.006250000860403699  0.007567386471705419  0.9999870352371772  1.0000
  Pd  Pd14      1.0  0.006249998709394452  0.007500000389374257  0.9995793219278661  1.0000
  Pd  Pd15      1.0  0.006250000860403699  0.002432610954774102  0.9999870352371772  1.0000
  Pd  Pd16      1.0  0.006249998709394452  0.002500000079091646  0.9995793219278661  1.0000
