data_image0
_chemical_formula_structural       COSi16Pd16Si16Pd16
_chemical_formula_sum              "C1 O1 Si32 Pd32"
_cell_length_a       12.896000070504089
_cell_length_b       6.645793962245513
_cell_length_c       109.87476348876953
_cell_angle_alpha    116.59678900062089
_cell_angle_beta     81.81856789759108
_cell_angle_gamma    81.81856774341988

_space_group_name_H-M_alt    "P 1"
_space_group_IT_number       1

loop_
  _space_group_symop_operation_xyz
  'x, y, z'

loop_
  _atom_site_type_symbol
  _atom_site_label
  _atom_site_symmetry_multiplicity
  _atom_site_fract_x
  _atom_site_fract_y
  _atom_site_fract_z
  _atom_site_occupancy
  C   C1        1.0  0.00027109199900467846  0.00971809067092979  0.00013098449148659654  1.0000
  O   O1        1.0  0.00027109199900467846  0.00971809067092979  0.00024019942249554318  1.0000
  Si  Si1       1.0  0.00546027260191363  0.004279088809078241  0.999642739338424  1.0000
  Si  Si2       1.0  0.00037772780164052806  0.006782845838971262  0.9998022017692044  1.0000
  Si  Si3       1.0  0.0004602727894666843  0.0017790891102399406  0.99949152614342  1.0000
  Si  Si4       1.0  0.005382152703356726  0.00939470792231976  0.9999481685338628  1.0000
  Si  Si5       1.0  0.009728907513357378  0.007871663384797842  0.9994696788612842  1.0000
  Si  Si6       1.0  0.004728907813442267  0.00037166308430274094  0.9996208916684267  1.0000
  Si  Si7       1.0  0.004699331446879693  0.0052679705016122945  0.9999241165719083  1.0000
  Si  Si8       1.0  0.009728907513357378  0.002871663309571514  0.9997721043370879  1.0000
  Si  Si9       1.0  0.007228908113527155  0.0008947713291013514  0.9997404639736799  1.0000
  Si  Si10      1.0  0.002171997314600354  0.003293035342051633  0.9998970771320693  1.0000
  Si  Si11      1.0  0.0022289079634847104  0.008394771479348903  0.9995892514312016  1.0000
  Si  Si12      1.0  0.00732379855613556  0.0052823200329200305  2.0716656559832644e-05  1.0000
  Si  Si13      1.0  0.007747452399334723  0.0008843867492753452  0.9999803861744305  1.0000
  Si  Si14      1.0  0.002960272601913629  0.003755980727680224  0.9995231664901054  1.0000
  Si  Si15      1.0  0.0028896083123994116  0.008826227054140974  0.9998321052457785  1.0000
  Si  Si16      1.0  0.00796027260191363  0.006255980489463515  0.9996743796836812  1.0000
  Pd  Pd1       1.0  0.008549966414499333  0.001868843229721663  0.9996016429802008  1.0000
  Pd  Pd2       1.0  0.0035499664144993336  0.004368843229721663  0.9997528559089884  1.0000
  Pd  Pd3       1.0  0.003633412519733582  0.008993945348989679  2.4835099910547573e-05  1.0000
  Pd  Pd4       1.0  0.00849280684520037  0.006768692034194946  0.9998949389400137  1.0000
  Pd  Pd5       1.0  0.00663921430094145  0.0002819091405029501  0.9995107751057628  1.0000
  Pd  Pd6       1.0  0.0016392141508990063  0.002781909215524172  0.9996619880390881  1.0000
  Pd  Pd7       1.0  0.0016484629171900148  0.007278210246616962  0.9999407248448832  1.0000
  Pd  Pd8       1.0  0.006587965203596793  0.005324786922944526  0.9998151304716919  1.0000
  Pd  Pd9       1.0  0.00913921430094145  0.009074219712783136  0.9997350354594222  1.0000
  Pd  Pd10      1.0  0.004093166875045613  0.0015759253874282945  0.9998757735330271  1.0000
  Pd  Pd11      1.0  0.004139214000856562  0.0065742191607131755  0.9995838222494579  1.0000
  Pd  Pd12      1.0  0.009019723499383505  0.0032802201773973645  2.345097194832189e-06  1.0000
  Pd  Pd13      1.0  0.006006639558198223  0.0027875171394876256  0.9999645667887426  1.0000
  Pd  Pd14      1.0  0.0010499665645417775  0.005576532732872913  0.9995285956633612  1.0000
  Pd  Pd15      1.0  0.0010718005909511681  0.0003454692406656318  0.9998188253494824  1.0000
  Pd  Pd16      1.0  0.006049966414499334  0.008076533510006539  0.9996798083444605  1.0000
  Si  Si17      1.0  0.00546027260191363  0.004279088809078241  0.9990378874605299  1.0000
  Si  Si18      1.0  0.0004602727894666843  0.0067790887153017145  0.9991891003836455  1.0000
  Si  Si19      1.0  0.0004602727894666843  0.0017790891102399406  0.998886674536765  1.0000
  Si  Si20      1.0  0.00546027260191363  0.00927908888430457  0.9993403133201423  1.0000
  Si  Si21      1.0  0.009728907513357378  0.007871663384797842  0.9988648269833903  1.0000
  Si  Si22      1.0  0.004728907813442267  0.00037166308430274094  0.9990160397905328  1.0000
  Si  Si23      1.0  0.004728907813442267  0.005371663159529069  0.9993184656501451  1.0000
  Si  Si24      1.0  0.009728907513357378  0.002871663309571514  0.9991672527304328  1.0000
  Si  Si25      1.0  0.007228908113527155  0.0008947713291013514  0.9991356123670249  1.0000
  Si  Si26      1.0  0.0022289079634847104  0.0033947714041225735  0.9992868253003502  1.0000
  Si  Si27      1.0  0.0022289079634847104  0.008394771479348903  0.9989843995533076  1.0000
  Si  Si28      1.0  0.007228908113527155  0.00589477140432768  0.9994380384978763  1.0000
  Si  Si29      1.0  0.00796027260191363  0.0012559807276802243  0.9993719535613177  1.0000
  Si  Si30      1.0  0.002960272601913629  0.003755980727680224  0.9989183148834504  1.0000
  Si  Si31      1.0  0.002960272601913629  0.008755980489463517  0.9992207407345748  1.0000
  Si  Si32      1.0  0.00796027260191363  0.006255980489463515  0.9990695278057872  1.0000
  Pd  Pd17      1.0  0.008549966414499333  0.001868843229721663  0.9989967911023068  1.0000
  Pd  Pd18      1.0  0.0035499664144993336  0.004368843229721663  0.9991480040310945  1.0000
  Pd  Pd19      1.0  0.0035499664144993336  0.009368843304947992  0.9994504298907069  1.0000
  Pd  Pd20      1.0  0.008549966414499333  0.006868843304947992  0.9992992169619193  1.0000
  Pd  Pd21      1.0  0.00663921430094145  0.0002819091405029501  0.9989059234991078  1.0000
  Pd  Pd22      1.0  0.0016392141508990063  0.002781909215524172  0.9990571364324331  1.0000
  Pd  Pd23      1.0  0.0016392141508990063  0.007781909290750501  0.9993595620208064  1.0000
  Pd  Pd24      1.0  0.00663921430094145  0.005281909215729279  0.9992083490874811  1.0000
  Pd  Pd25      1.0  0.00913921430094145  0.009074219712783136  0.9991301835815282  1.0000
  Pd  Pd26      1.0  0.004139214000856562  0.0015742193989298839  0.9992813966695724  1.0000
  Pd  Pd27      1.0  0.004139214000856562  0.0065742191607131755  0.9989789706428028  1.0000
  Pd  Pd28      1.0  0.00913921430094145  0.004074219010670732  0.9994326093115948  1.0000
  Pd  Pd29      1.0  0.006049966414499334  0.0030765328078941356  0.9993773827391111  1.0000
  Pd  Pd30      1.0  0.0010499665645417775  0.005576532732872913  0.9989237437854671  1.0000
  Pd  Pd31      1.0  0.0010499665645417775  0.0005765328927288624  0.9992261695388757  1.0000
  Pd  Pd32      1.0  0.006049966414499334  0.008076533510006539  0.9990749567378056  1.0000
