data_image0
_chemical_formula_structural       HAg4Ca2Sn2
_chemical_formula_sum              "H1 Ag4 Ca2 Sn2"
_cell_length_a       5.083907604217529
_cell_length_b       5.083907604217529
_cell_length_c       98.75892639160156
_cell_angle_alpha    90.0
_cell_angle_beta     90.0
_cell_angle_gamma    90.0

_space_group_name_H-M_alt    "P 1"
_space_group_IT_number       1

loop_
  _space_group_symop_operation_xyz
  'x, y, z'

loop_
  _atom_site_type_symbol
  _atom_site_label
  _atom_site_symmetry_multiplicity
  _atom_site_fract_x
  _atom_site_fract_y
  _atom_site_fract_z
  _atom_site_occupancy
  H   H1        1.0  0.002500009240118885  0.002500023162581916  0.00013826424172990446  1.0000
  Ag  Ag1       1.0  0.004999974148184436  0.005000041562215953  0.9998434573450137  1.0000
  Ag  Ag2       1.0  1.7149999942270295e-08  0.00999997907233978  0.9998434510078774  1.0000
  Ag  Ag3       1.0  6.7499998407750676e-09  2.095000096038461e-08  0.9994600578873857  1.0000
  Ag  Ag4       1.0  0.005000006756058376  0.005000021044902013  0.9994600578873857  1.0000
  Ca  Ca1       1.0  0.009999993727564025  0.005000012251767467  2.702215240723302e-05  1.0000
  Ca  Ca2       1.0  0.005000006756058376  2.095000096038461e-08  0.9996420598362783  1.0000
  Sn  Sn1       1.0  0.005000025075088679  3.394999951491866e-08  0.0  1.0000
  Sn  Sn2       1.0  6.7499998407750676e-09  0.005000021044902013  0.9996420598362783  1.0000
