data_image0
_chemical_formula_structural       COCa6Cu6Sb6Ca6Cu6Sb6
_chemical_formula_sum              "C1 O1 Ca12 Cu12 Sb12"
_cell_length_a       11.987115133613873
_cell_length_b       9.46338118814055
_cell_length_c       101.71492767333984
_cell_angle_alpha    103.84999764979358
_cell_angle_beta     79.10660561799843
_cell_angle_gamma    68.78247284247675

_space_group_name_H-M_alt    "P 1"
_space_group_IT_number       1

loop_
  _space_group_symop_operation_xyz
  'x, y, z'

loop_
  _atom_site_type_symbol
  _atom_site_label
  _atom_site_symmetry_multiplicity
  _atom_site_fract_x
  _atom_site_fract_y
  _atom_site_fract_z
  _atom_site_occupancy
  C   C1        1.0  0.001060790399677859  0.009154248398141716  9.134249707108428e-05  1.0000
  O   O1        1.0  0.001060790399677859  0.009154248398141716  0.0002093195196496527  1.0000
  Ca  Ca1       1.0  2.68885157805023e-05  0.0008457518125970151  0.9995642883368314  1.0000
  Ca  Ca2       1.0  0.0033602216597549118  0.0008457518125970151  0.9992673339669707  1.0000
  Ca  Ca3       1.0  0.006693555318004949  0.0008457518125970151  0.9994158111584932  1.0000
  Ca  Ca4       1.0  0.008360222085158027  0.0058457516377287055  0.9992673339536017  1.0000
  Ca  Ca5       1.0  0.00169355540161257  0.0058457516377287055  0.9994158111292967  1.0000
  Ca  Ca6       1.0  0.005026888743385298  0.0058457516377287055  0.9995642883278677  1.0000
  Cu  Cu1       1.0  0.0003046663368989624  0.0033457517812103955  0.9993910649405217  1.0000
  Cu  Cu2       1.0  0.0036379996786716903  0.0033457517812103955  0.9995395421390926  1.0000
  Cu  Cu3       1.0  0.006971332703967109  0.0033457517812103955  0.999242587771875  1.0000
  Cu  Cu4       1.0  0.006415777491621595  0.008345751494247015  0.9995890342306927  1.0000
  Cu  Cu5       1.0  0.009749110833394324  0.008345751494247015  0.9992920801494252  1.0000
  Cu  Cu6       1.0  0.003082444149848868  0.008345751494247015  0.9994405573251202  1.0000
  Sb  Sb1       1.0  0.008637999508485207  0.008345751494247015  0.9995395421364918  1.0000
  Sb  Sb2       1.0  0.0019713331414170617  0.008345751494247015  0.9992425877323013  1.0000
  Sb  Sb3       1.0  0.00530466616671248  0.008345751494247015  0.9993910649379208  1.0000
  Sb  Sb4       1.0  0.008082444028876225  0.0033457517812103955  0.9994405573576455  1.0000
  Sb  Sb5       1.0  0.0014157773453307685  0.0033457517812103955  0.999589034240342  1.0000
  Sb  Sb6       1.0  0.0047491106871034965  0.0033457517812103955  0.9992920801590744  1.0000
  Ca  Ca7       1.0  0.009973111532778488  0.0010280808338249015  0.9999847796154308  1.0000
  Ca  Ca8       1.0  0.0033602216597549118  0.0008457518125970151  0.9997127655398077  1.0000
  Ca  Ca9       1.0  0.006830250339183678  0.000862584512777934  0.99985624738632  1.0000
  Ca  Ca10      1.0  0.008360222085158027  0.0058457516377287055  0.9997127655264386  1.0000
  Ca  Ca11      1.0  0.0015795653834262259  0.005816002951217488  0.9998635167813579  1.0000
  Ca  Ca12      1.0  0.005159004923356697  0.00589340683914658  0.9999667229264796  1.0000
  Cu  Cu7       1.0  0.0002093269500051597  0.003533780500476761  0.9998458559242671  1.0000
  Cu  Cu8       1.0  0.003435334314064785  0.003301459656091033  0.999962150405499  1.0000
  Cu  Cu9       1.0  0.006971332703967109  0.0033457517812103955  0.9996880193447121  1.0000
  Cu  Cu10      1.0  0.006733358110313741  0.008319245045548549  0.999999538637678  1.0000
  Cu  Cu11      1.0  0.009749110833394324  0.008345751494247015  0.9997375117222622  1.0000
  Cu  Cu12      1.0  0.0031162704186051635  0.008515927952620739  0.9998733455232764  1.0000
  Sb  Sb7       1.0  0.008742022515586551  0.008568520269313984  0.9999961358314843  1.0000
  Sb  Sb8       1.0  0.0019713331414170617  0.008345751494247015  0.9996880193051384  1.0000
  Sb  Sb9       1.0  0.005236840540881293  0.008621417484598388  0.9998533379737955  1.0000
  Sb  Sb10      1.0  0.007960064420907369  0.003561741046426887  0.9998948826937599  1.0000
  Sb  Sb11      1.0  0.0013116056635171097  0.0033518210566955845  4.1520836699826145e-05  1.0000
  Sb  Sb12      1.0  0.0047491106871034965  0.0033457517812103955  0.9997375117319114  1.0000
