data_image0
_chemical_formula_structural       COAg20Al10
_chemical_formula_sum              "C1 O1 Ag20 Al10"
_cell_length_a       5.114678428894991
_cell_length_b       10.622958476495175
_cell_length_c       109.87657928466797
_cell_angle_alpha    87.30401718877468
_cell_angle_beta     89.50698187471593
_cell_angle_gamma    76.30817875926175

_space_group_name_H-M_alt    "P 1"
_space_group_IT_number       1

loop_
  _space_group_symop_operation_xyz
  'x, y, z'

loop_
  _atom_site_type_symbol
  _atom_site_label
  _atom_site_symmetry_multiplicity
  _atom_site_fract_x
  _atom_site_fract_y
  _atom_site_fract_z
  _atom_site_occupancy
  C   C1        1.0  0.0017851370085272937  0.009605153819407155  0.00011715480956417238  1.0000
  O   O1        1.0  0.0017851370085272937  0.009605153819407155  0.00022636793571147276  1.0000
  Ag  Ag1       1.0  0.0007462044511500054  0.003675383353535303  0.9999113053746039  1.0000
  Ag  Ag2       1.0  0.008343630459353176  0.00767322700543631  0.9991999393132511  1.0000
  Ag  Ag3       1.0  0.0025665529240213314  0.00969686743206602  0.9997345324985156  1.0000
  Ag  Ag4       1.0  0.006343630593020027  0.0016732269230536202  0.9993814005045214  1.0000
  Ag  Ag5       1.0  0.00434363019186742  0.0056732271586392045  0.9995628611385291  1.0000
  Ag  Ag6       1.0  0.009496268262204807  0.005029147371195562  0.9996797359768013  1.0000
  Ag  Ag7       1.0  0.007605878157392796  0.009084933875780271  0.9998934433645007  1.0000
  Ag  Ag8       1.0  0.0014962679489122475  0.0010291472259418729  0.9994982751714522  1.0000
  Ag  Ag9       1.0  0.0054962680833906315  0.003029147343734665  0.9991353538874642  1.0000
  Ag  Ag10      1.0  0.003496267682238025  0.00702914757932025  0.9993168145214719  1.0000
  Ag  Ag11      1.0  0.0038916017219823612  0.002947212700806793  0.9996038739420499  1.0000
  Ag  Ag12      1.0  0.0017114230240518672  0.006937679669418445  0.9997882259119407  1.0000
  Ag  Ag13      1.0  0.005891602129848551  0.008947212421861899  0.9994224127522059  1.0000
  Ag  Ag14      1.0  0.0005272834121644904  0.00096641109186189  0.9999580954823336  1.0000
  Ag  Ag15      1.0  0.00789160153660666  0.0049472127282676895  0.9992409521161317  1.0000
  Ag  Ag16      1.0  0.008992643507240968  0.002299799124410186  0.9997159582600388  1.0000
  Ag  Ag17      1.0  0.006947050595928631  0.00634549049762798  0.9999027706958808  1.0000
  Ag  Ag18      1.0  0.001044239352733401  0.00830313299574584  0.9995392879604267  1.0000
  Ag  Ag19      1.0  0.005044239216063852  0.00030313295365117535  0.9991763666908361  1.0000
  Ag  Ag20      1.0  0.003044239301024549  0.004303132940824046  0.9993578273257788  1.0000
  Al  Al1       1.0  0.00888413799365063  0.006333281238567595  0.9994430867892903  1.0000
  Al  Al2       1.0  0.006884137299182195  0.0003332813594316721  0.999624547979968  1.0000
  Al  Al3       1.0  0.0008841375473506981  0.0023332813643095946  0.9992616265252312  1.0000
  Al  Al4       1.0  0.0050752623062403825  0.004373693352737954  0.9998139542164438  1.0000
  Al  Al5       1.0  0.003024826120643412  0.008399521464685356  0.9999605914424008  1.0000
  Al  Al6       1.0  0.008503731982503999  0.003643078499568072  0.9994776013052148  1.0000
  Al  Al7       1.0  0.006503732398402729  0.007643078554489865  0.9996590619397169  1.0000
  Al  Al8       1.0  0.0005037318184359479  0.009643078762614552  0.9992961404843874  1.0000
  Al  Al9       1.0  0.0050766966121137454  0.0016694138330605975  0.9998692659474874  1.0000
  Al  Al10      1.0  0.0025037321309169724  0.0056430787076927605  0.9991146798495937  1.0000
