data_image0
_chemical_formula_structural       COPd4Rh4Zn8Pd4Rh4Zn8Pd4Rh4Zn8Pd4Rh4Zn8
_chemical_formula_sum              "C1 O1 Pd16 Rh16 Zn32"
_cell_length_a       8.681396484375
_cell_length_b       8.681396484375
_cell_length_c       106.83204650878906
_cell_angle_alpha    90.0
_cell_angle_beta     90.0
_cell_angle_gamma    90.0

_space_group_name_H-M_alt    "P 1"
_space_group_IT_number       1

loop_
  _space_group_symop_operation_xyz
  'x, y, z'

loop_
  _atom_site_type_symbol
  _atom_site_label
  _atom_site_symmetry_multiplicity
  _atom_site_fract_x
  _atom_site_fract_y
  _atom_site_fract_z
  _atom_site_occupancy
  C   C1        1.0  0.001250000416238516  0.0024999997596973516  0.00016212844639137194  1.0000
  O   O1        1.0  0.001250000416238516  0.0024999997596973516  0.000274453962060147  1.0000
  Pd  Pd1       1.0  0.003749999639546027  0.0024999999742532876  0.9995745912258645  1.0000
  Pd  Pd2       1.0  0.0012499997725707078  0.00999999989701315  0.9998658806807835  1.0000
  Pd  Pd3       1.0  0.003749999639546027  0.0024999999742532876  0.998999981487932  1.0000
  Pd  Pd4       1.0  0.0012499997725707078  0.0  0.9992872862174161  1.0000
  Rh  Rh1       1.0  0.0012499997725707078  0.0  0.9995745912258645  1.0000
  Rh  Rh2       1.0  0.0037500000686578995  0.0024999999742532876  0.9998708122109038  1.0000
  Rh  Rh3       1.0  0.0012499997725707078  0.0  0.998999981487932  1.0000
  Rh  Rh4       1.0  0.003749999639546027  0.0024999999742532876  0.9992872862174161  1.0000
  Zn  Zn1       1.0  0.003749999639546027  0.0  0.9997182438695708  1.0000
  Zn  Zn2       1.0  0.0012499997725707078  0.0024999999742532876  0.9997182438695708  1.0000
  Zn  Zn3       1.0  0.001250000416238516  0.0024999997596973516  0.0  1.0000
  Zn  Zn4       1.0  0.0037499992104341553  2.9999999509876927e-10  0.0  1.0000
  Zn  Zn5       1.0  0.003749999639546027  0.0  0.999143633852674  1.0000
  Zn  Zn6       1.0  0.0012499997725707078  0.0024999999742532876  0.999143633852674  1.0000
  Zn  Zn7       1.0  0.0012499997725707078  0.0024999999742532876  0.9994309385821581  1.0000
  Zn  Zn8       1.0  0.003749999639546027  0.0  0.9994309385821581  1.0000
  Pd  Pd5       1.0  0.003749999639546027  0.007500000137315799  0.9995745912258645  1.0000
  Pd  Pd6       1.0  0.0012499997725707078  0.004999999948506575  0.9998658806807835  1.0000
  Pd  Pd7       1.0  0.003749999639546027  0.007500000137315799  0.998999981487932  1.0000
  Pd  Pd8       1.0  0.0012499997725707078  0.004999999948506575  0.9992872862174161  1.0000
  Rh  Rh5       1.0  0.0012499997725707078  0.004999999948506575  0.9995745912258645  1.0000
  Rh  Rh6       1.0  0.0037500000686578995  0.007500000137315799  0.9998708122109038  1.0000
  Rh  Rh7       1.0  0.0012499997725707078  0.004999999948506575  0.998999981487932  1.0000
  Rh  Rh8       1.0  0.003749999639546027  0.007500000137315799  0.9992872862174161  1.0000
  Zn  Zn9       1.0  0.003749999639546027  0.004999999948506575  0.9997182438695708  1.0000
  Zn  Zn10      1.0  0.0012499997725707078  0.007500000137315799  0.9997182438695708  1.0000
  Zn  Zn11      1.0  0.001250000416238516  0.007499999279092054  0.0  1.0000
  Zn  Zn12      1.0  0.0037499992104341553  0.004999999948506575  0.0  1.0000
  Zn  Zn13      1.0  0.003749999639546027  0.004999999948506575  0.999143633852674  1.0000
  Zn  Zn14      1.0  0.0012499997725707078  0.007500000137315799  0.999143633852674  1.0000
  Zn  Zn15      1.0  0.0012499997725707078  0.007500000137315799  0.9994309385821581  1.0000
  Zn  Zn16      1.0  0.003749999639546027  0.004999999948506575  0.9994309385821581  1.0000
  Pd  Pd9       1.0  0.008749999588052603  0.0024999999742532876  0.9995745912258645  1.0000
  Pd  Pd10      1.0  0.006249999828355251  0.00999999989701315  0.9998658806807835  1.0000
  Pd  Pd11      1.0  0.008749999588052603  0.0024999999742532876  0.998999981487932  1.0000
  Pd  Pd12      1.0  0.006249999828355251  0.0  0.9992872862174161  1.0000
  Rh  Rh9       1.0  0.006249999828355251  0.0  0.9995745912258645  1.0000
  Rh  Rh10      1.0  0.008749999588052603  0.0024999999742532876  0.9998708122109038  1.0000
  Rh  Rh11      1.0  0.006249999828355251  0.0  0.998999981487932  1.0000
  Rh  Rh12      1.0  0.008749999588052603  0.0024999999742532876  0.9992872862174161  1.0000
  Zn  Zn17      1.0  0.008749999588052603  0.0  0.9997182438695708  1.0000
  Zn  Zn18      1.0  0.006249999828355251  0.0024999999742532876  0.9997182438695708  1.0000
  Zn  Zn19      1.0  0.0062500002574671235  0.0024999997596973516  0.0  1.0000
  Zn  Zn20      1.0  0.008749998729828859  2.9999999509876927e-10  0.0  1.0000
  Zn  Zn21      1.0  0.008749999588052603  0.0  0.999143633852674  1.0000
  Zn  Zn22      1.0  0.006249999828355251  0.0024999999742532876  0.999143633852674  1.0000
  Zn  Zn23      1.0  0.006249999828355251  0.0024999999742532876  0.9994309385821581  1.0000
  Zn  Zn24      1.0  0.008749999588052603  0.0  0.9994309385821581  1.0000
  Pd  Pd13      1.0  0.008749999588052603  0.007500000137315799  0.9995745912258645  1.0000
  Pd  Pd14      1.0  0.006249999828355251  0.004999999948506575  0.9998658806807835  1.0000
  Pd  Pd15      1.0  0.008749999588052603  0.007500000137315799  0.998999981487932  1.0000
  Pd  Pd16      1.0  0.006249999828355251  0.004999999948506575  0.9992872862174161  1.0000
  Rh  Rh13      1.0  0.006249999828355251  0.004999999948506575  0.9995745912258645  1.0000
  Rh  Rh14      1.0  0.008749999588052603  0.007500000137315799  0.9998708122109038  1.0000
  Rh  Rh15      1.0  0.006249999828355251  0.004999999948506575  0.998999981487932  1.0000
  Rh  Rh16      1.0  0.008749999588052603  0.007500000137315799  0.9992872862174161  1.0000
  Zn  Zn25      1.0  0.008749999588052603  0.004999999948506575  0.9997182438695708  1.0000
  Zn  Zn26      1.0  0.006249999828355251  0.007500000137315799  0.9997182438695708  1.0000
  Zn  Zn27      1.0  0.0062500002574671235  0.007499999279092054  0.0  1.0000
  Zn  Zn28      1.0  0.008749998729828859  0.004999999948506575  0.0  1.0000
  Zn  Zn29      1.0  0.008749999588052603  0.004999999948506575  0.999143633852674  1.0000
  Zn  Zn30      1.0  0.006249999828355251  0.007500000137315799  0.999143633852674  1.0000
  Zn  Zn31      1.0  0.006249999828355251  0.007500000137315799  0.9994309385821581  1.0000
  Zn  Zn32      1.0  0.008749999588052603  0.004999999948506575  0.9994309385821581  1.0000
