data_image0
_chemical_formula_structural       COFe16W8Fe16W8
_chemical_formula_sum              "C1 O1 Fe32 W16"
_cell_length_a       9.059597310096814
_cell_length_b       8.076720237731934
_cell_length_c       102.64167785644531
_cell_angle_alpha    90.0
_cell_angle_beta     75.0867217844548
_cell_angle_gamma    63.528351235306914

_space_group_name_H-M_alt    "P 1"
_space_group_IT_number       1

loop_
  _space_group_symop_operation_xyz
  'x, y, z'

loop_
  _atom_site_type_symbol
  _atom_site_label
  _atom_site_symmetry_multiplicity
  _atom_site_fract_x
  _atom_site_fract_y
  _atom_site_fract_z
  _atom_site_occupancy
  C   C1        1.0  0.004702634621422074  0.007621713734370143  0.9999386347864061  1.0000
  O   O1        1.0  0.004702634621422074  0.007621713734370143  5.554659620207307e-05  1.0000
  Fe  Fe1       1.0  0.0003437331563896466  0.004801164190143556  0.9994217179348308  1.0000
  Fe  Fe2       1.0  0.0003437331563896466  0.009801164466886357  0.999648872145275  1.0000
  Fe  Fe3       1.0  0.005343733044880673  0.0023011642458980433  0.9997624492762582  1.0000
  Fe  Fe4       1.0  0.005343733044880673  0.007301164522640844  0.9995352950658141  1.0000
  Fe  Fe5       1.0  0.002843733025696333  0.006846508212844368  0.9995920836072467  1.0000
  Fe  Fe6       1.0  0.002843733025696333  0.0018465079361015685  0.9998192378176909  1.0000
  Fe  Fe7       1.0  0.007843733064065012  0.00019883607661155158  0.999589494551616  1.0000
  Fe  Fe8       1.0  0.007843733064065012  0.005198836353354352  0.9998166487620602  1.0000
  Fe  Fe9       1.0  0.007843733064065012  0.00019883607661155158  0.999821826337329  1.0000
  Fe  Fe10      1.0  0.007843733064065012  0.005198836353354352  0.9995946721268848  1.0000
  Fe  Fe11      1.0  0.002843733025696333  0.004403492415184535  0.9997030716344815  1.0000
  Fe  Fe12      1.0  0.002843733025696333  0.009403492691927336  0.9994759174240373  1.0000
  Fe  Fe13      1.0  0.002843733025696333  0.004403492415184535  0.999481094999306  1.0000
  Fe  Fe14      1.0  0.002843733025696333  0.009403492691927336  0.9997082492097502  1.0000
  Fe  Fe15      1.0  0.007843733064065012  0.00775582083243732  0.9994785065243814  1.0000
  Fe  Fe16      1.0  0.007843733064065012  0.002755820555694519  0.9997056607348256  1.0000
  W   W1        1.0  0.009656266590616875  0.0018115643856902095  0.999437334070589  1.0000
  W   W2        1.0  0.009656266590616875  0.00681156466243301  0.9996644882810332  1.0000
  W   W3        1.0  0.004656266552248196  0.0009782308101730153  0.9995509111534544  1.0000
  W   W4        1.0  0.004656266552248196  0.005978230856296816  0.9997780653638986  1.0000
  W   W5        1.0  0.001031199379242348  0.0027907643966759393  0.9996332560637627  1.0000
  W   W6        1.0  0.001031199379242348  0.007790764442799739  0.9994061018533186  1.0000
  W   W7        1.0  0.0060311995375131496  0.003624097912242072  0.9995196789781737  1.0000
  W   W8        1.0  0.0060311995375131496  0.008624098188984873  0.9997468331886179  1.0000
  Fe  Fe17      1.0  0.0003437331563896466  0.004801164190143556  0.9989674095139425  1.0000
  Fe  Fe18      1.0  0.0003437331563896466  0.009801164466886357  0.9991945637243866  1.0000
  Fe  Fe19      1.0  0.005343733044880673  0.0023011642458980433  0.9993081408553699  1.0000
  Fe  Fe20      1.0  0.005343733044880673  0.007301164522640844  0.9990809866449257  1.0000
  Fe  Fe21      1.0  0.002843733025696333  0.006846508212844368  0.9991377751863585  1.0000
  Fe  Fe22      1.0  0.002843733025696333  0.0018465079361015685  0.9993649293968027  1.0000
  Fe  Fe23      1.0  0.007843733064065012  0.00019883607661155158  0.9991351864210807  1.0000
  Fe  Fe24      1.0  0.007843733064065012  0.005198836353354352  0.9993623403411719  1.0000
  Fe  Fe25      1.0  0.007843733064065012  0.00019883607661155158  0.9993675179164406  1.0000
  Fe  Fe26      1.0  0.007843733064065012  0.005198836353354352  0.9991403639963495  1.0000
  Fe  Fe27      1.0  0.002843733025696333  0.004403492415184535  0.9992487635039461  1.0000
  Fe  Fe28      1.0  0.002843733025696333  0.009403492691927336  0.9990216092935019  1.0000
  Fe  Fe29      1.0  0.002843733025696333  0.004403492415184535  0.9990267868687708  1.0000
  Fe  Fe30      1.0  0.002843733025696333  0.009403492691927336  0.999253941079215  1.0000
  Fe  Fe31      1.0  0.007843733064065012  0.00775582083243732  0.9990241981034931  1.0000
  Fe  Fe32      1.0  0.007843733064065012  0.002755820555694519  0.9992513523139372  1.0000
  W   W9        1.0  0.009656266590616875  0.0018115643856902095  0.9989830256497007  1.0000
  W   W10       1.0  0.009656266590616875  0.00681156466243301  0.9992101798601448  1.0000
  W   W11       1.0  0.004656266552248196  0.0009782308101730153  0.9990966027325661  1.0000
  W   W12       1.0  0.004656266552248196  0.005978230856296816  0.9993237569430102  1.0000
  W   W13       1.0  0.001031199379242348  0.0027907643966759393  0.9991789476428744  1.0000
  W   W14       1.0  0.001031199379242348  0.007790764442799739  0.9989517934324302  1.0000
  W   W15       1.0  0.0060311995375131496  0.003624097912242072  0.9990653705572854  1.0000
  W   W16       1.0  0.0060311995375131496  0.008624098188984873  0.9992925247677296  1.0000
