data_image0
_chemical_formula_structural       Ag3Au9H
_chemical_formula_sum              "Ag3 Au9 H1"
_cell_length_a       5.933782577514648
_cell_length_b       5.933782482613353
_cell_length_c       99.0694808959961
_cell_angle_alpha    90.0
_cell_angle_beta     90.0
_cell_angle_gamma    59.99999947094293

_space_group_name_H-M_alt    "P 1"
_space_group_IT_number       1

loop_
  _space_group_symop_operation_xyz
  'x, y, z'

loop_
  _atom_site_type_symbol
  _atom_site_label
  _atom_site_symmetry_multiplicity
  _atom_site_fract_x
  _atom_site_fract_y
  _atom_site_fract_z
  _atom_site_occupancy
  Ag  Ag1       1.0  0.006668411195077392  0.006668400590413273  2.4890048197048416e-06  1.0000
  Ag  Ag2       1.0  1.7761999417861301e-06  1.7764999961770657e-06  0.9997520188313881  1.0000
  Ag  Ag3       1.0  0.003335105542906565  0.0033351050115905767  0.9995066268414665  1.0000
  Au  Au1       1.0  0.005003540701022338  0.005003540848246307  0.9997542840243169  1.0000
  Au  Au2       1.0  0.008335105435728053  0.008335104924598618  0.9995066268414665  1.0000
  Au  Au3       1.0  0.001656107201013371  0.0016561027327607917  0.0  1.0000
  Au  Au4       1.0  0.009998223900767184  0.005003549184975807  0.9997542819185599  1.0000
  Au  Au5       1.0  0.003335105536177714  0.008335104924598618  0.9995066268414665  1.0000
  Au  Au6       1.0  0.006693197012007994  0.0016560293332945465  0.0  1.0000
  Au  Au7       1.0  0.005003549217220997  0.009998223740166196  0.9997542822193822  1.0000
  Au  Au8       1.0  0.008335105442456905  0.0033351050115905767  0.9995066268414665  1.0000
  Au  Au9       1.0  0.0016560323256732854  0.0066931961987436416  0.0  1.0000
  H   H1        1.0  0.009993516541939685  0.0050058997802281515  0.000152238412512365  1.0000
