data_image0
_chemical_formula_structural       HAl6Ir3Rh3Al6Ir3Rh3Al6Ir3Rh3Al6Ir3Rh3
_chemical_formula_sum              "H1 Al24 Ir12 Rh12"
_cell_length_a       8.557154655456543
_cell_length_b       8.557154551588175
_cell_length_c       38.55900573730469
_cell_angle_alpha    90.0
_cell_angle_beta     90.0
_cell_angle_gamma    120.0000004015281

_space_group_name_H-M_alt    "P 1"
_space_group_IT_number       1

loop_
  _space_group_symop_operation_xyz
  'x, y, z'

loop_
  _atom_site_type_symbol
  _atom_site_label
  _atom_site_symmetry_multiplicity
  _atom_site_fract_x
  _atom_site_fract_y
  _atom_site_fract_z
  _atom_site_occupancy
  H   H1        1.0  0.0008333323149152986  0.00500000106570248  9.431024245915023e-05  1.0000
  Al  Al1       1.0  0.0033333337405011465  0.0024999992761266174  0.9977543846375281  1.0000
  Al  Al2       1.0  0.0016666672602018567  0.004166665962900878  0.9986603843008398  1.0000
  Al  Al3       1.0  0.009999999477179125  0.0008333336575682861  0.9996063337089677  1.0000
  Al  Al4       1.0  5.504279403278754e-10  0.0008333326521885877  0.9982073846624094  1.0000
  Al  Al5       1.0  0.0033333337405011465  0.0024999992761266174  0.9991133839392702  1.0000
  Al  Al6       1.0  0.001666666708210113  0.004166667470970426  0.0  1.0000
  Ir  Ir1       1.0  5.504279403278754e-10  0.0008333326521885877  0.9988868839268296  1.0000
  Ir  Ir2       1.0  0.0033333322258264336  0.0025000010355410896  0.9997747868689462  1.0000
  Ir  Ir3       1.0  0.0016666672602018567  0.004166665962900878  0.9979808846499687  1.0000
  Rh  Rh1       1.0  0.0016666658103168823  0.004166667470970426  0.9993197695705397  1.0000
  Rh  Rh2       1.0  5.504279403278754e-10  0.0008333326521885877  0.9975278850115383  1.0000
  Rh  Rh3       1.0  0.0033333337405011465  0.0024999992761266174  0.9984338842883992  1.0000
  Al  Al7       1.0  0.0033333338381405743  0.0074999993364494  0.9977543846375281  1.0000
  Al  Al8       1.0  0.001666667357841285  0.009166666023223661  0.9986603843008398  1.0000
  Al  Al9       1.0  0.009999999597818207  0.005833333655054837  0.9996063337089677  1.0000
  Al  Al10      1.0  4.533959383487547e-10  0.005833332649675139  0.9982073846624094  1.0000
  Al  Al11      1.0  0.0033333338381405743  0.0074999993364494  0.9991133839392702  1.0000
  Al  Al12      1.0  0.0016666665545046163  0.00916666702860336  0.0  1.0000
  Ir  Ir4       1.0  4.533959383487547e-10  0.005833332649675139  0.9988868839268296  1.0000
  Ir  Ir5       1.0  0.0033333323947205527  0.0075000013472087965  0.9997747868689462  1.0000
  Ir  Ir6       1.0  0.001666667357841285  0.009166666023223661  0.9979808846499687  1.0000
  Rh  Rh4       1.0  0.0016666656838202714  0.00916666702860336  0.9993197695705397  1.0000
  Rh  Rh5       1.0  4.533959383487547e-10  0.005833332649675139  0.9975278850115383  1.0000
  Rh  Rh6       1.0  0.0033333338381405743  0.0074999993364494  0.9984338842883992  1.0000
  Al  Al13      1.0  0.008333333714380615  0.0024999992761266174  0.9977543846375281  1.0000
  Al  Al14      1.0  0.006666667179663554  0.004166665962900878  0.9986603843008398  1.0000
  Al  Al15      1.0  0.004999999285628569  0.0008333336575682861  0.9996063337089677  1.0000
  Al  Al16      1.0  0.00500000052430741  0.0008333326521885877  0.9982073846624094  1.0000
  Al  Al17      1.0  0.008333333714380615  0.0024999992761266174  0.9991133839392702  1.0000
  Al  Al18      1.0  0.00666666662767181  0.004166667470970426  0.0  1.0000
  Ir  Ir7       1.0  0.00500000052430741  0.0008333326521885877  0.9988868839268296  1.0000
  Ir  Ir8       1.0  0.00833333241737699  0.0025000010355410896  0.9997747868689462  1.0000
  Ir  Ir9       1.0  0.006666667179663554  0.004166665962900878  0.9979808846499687  1.0000
  Rh  Rh7       1.0  0.006666665756987465  0.004166667470970426  0.9993197695705397  1.0000
  Rh  Rh8       1.0  0.00500000052430741  0.0008333326521885877  0.9975278850115383  1.0000
  Rh  Rh9       1.0  0.008333333714380615  0.0024999992761266174  0.9984338842883992  1.0000
  Al  Al19      1.0  0.008333333866437816  0.0074999993364494  0.9977543846375281  1.0000
  Al  Al20      1.0  0.006666667331720754  0.009166666023223661  0.9986603843008398  1.0000
  Al  Al21      1.0  0.004999999406267652  0.005833333655054837  0.9996063337089677  1.0000
  Al  Al22      1.0  0.005000000644946494  0.005833332649675139  0.9982073846624094  1.0000
  Al  Al23      1.0  0.008333333866437816  0.0074999993364494  0.9991133839392702  1.0000
  Al  Al24      1.0  0.0066666665283840855  0.00916666702860336  0.0  1.0000
  Ir  Ir10      1.0  0.005000000644946494  0.005833332649675139  0.9988868839268296  1.0000
  Ir  Ir11      1.0  0.008333332259764478  0.0075000013472087965  0.9997747868689462  1.0000
  Ir  Ir12      1.0  0.006666667331720754  0.009166666023223661  0.9979808846499687  1.0000
  Rh  Rh10      1.0  0.006666665657699741  0.00916666702860336  0.9993197695705397  1.0000
  Rh  Rh11      1.0  0.005000000644946494  0.005833332649675139  0.9975278850115383  1.0000
  Rh  Rh12      1.0  0.008333333866437816  0.0074999993364494  0.9984338842883992  1.0000
