data_image0
_chemical_formula_structural       COSi12W20
_chemical_formula_sum              "C1 O1 Si12 W20"
_cell_length_a       9.679327964782715
_cell_length_b       4.991718769073486
_cell_length_c       108.71731567382812
_cell_angle_alpha    90.0
_cell_angle_beta     90.0
_cell_angle_gamma    90.0

_space_group_name_H-M_alt    "P 1"
_space_group_IT_number       1

loop_
  _space_group_symop_operation_xyz
  'x, y, z'

loop_
  _atom_site_type_symbol
  _atom_site_label
  _atom_site_symmetry_multiplicity
  _atom_site_fract_x
  _atom_site_fract_y
  _atom_site_fract_z
  _atom_site_occupancy
  C   C1        1.0  0.009999989162039431  1.5000000363642326e-10  0.00015931697373071165  1.0000
  O   O1        1.0  0.009999989162039431  1.5000000363642326e-10  0.000269694650365521  1.0000
  Si  Si1       1.0  0.005000010745591585  0.002500000179110586  0.9995527792336466  1.0000
  Si  Si2       1.0  0.009999989162039431  0.0024999501774054527  0.0  1.0000
  Si  Si3       1.0  0.006851389195006537  0.009999999970148237  0.9998648725172978  1.0000
  Si  Si4       1.0  0.006682244654446899  0.005000000358221172  0.999257391507131  1.0000
  Si  Si5       1.0  0.0031486921435796263  0.005000000358221172  0.9998648741620582  1.0000
  Si  Si6       1.0  0.003317777221607031  4.999999935869962e-11  0.999257391507131  1.0000
  Si  Si7       1.0  0.009999989162039431  0.00750005053903689  0.0  1.0000
  Si  Si8       1.0  0.005000010745591585  0.007500000537331757  0.9995527792336466  1.0000
  Si  Si9       1.0  0.0016822444928011801  0.005000000358221172  0.9994030062561948  1.0000
  Si  Si10      1.0  0.0016822444928011801  4.999999935869962e-11  0.9997025516628448  1.0000
  Si  Si11      1.0  0.00831777757568813  4.999999935869962e-11  0.9994030062561948  1.0000
  Si  Si12      1.0  0.00831777757568813  0.005000000358221172  0.9997025516628448  1.0000
  W   W1        1.0  0.007743441100265815  0.004999999985074118  0.9999275960029533  1.0000
  W   W2        1.0  0.0022392427329750173  0.005000000358221172  0.999174393882551  1.0000
  W   W3        1.0  0.0049999968902442685  0.002500096824197372  0.9999808226421276  1.0000
  W   W4        1.0  0.0049999968902442685  0.007499903519097917  0.9999808226421276  1.0000
  W   W5        1.0  0.0043327118173476535  0.009999999970148237  0.9997506663867328  1.0000
  W   W6        1.0  0.005750021863738066  4.999999935869962e-11  0.9993534156339852  1.0000
  W   W7        1.0  0.0022565524877873424  3.5000002331251933e-10  0.9999275970994602  1.0000
  W   W8        1.0  0.0056673081343524825  0.005000000358221172  0.9997506691280001  1.0000
  W   W9        1.0  0.004250000012315864  0.005000000358221172  0.9993534156339852  1.0000
  W   W10       1.0  0.007760779527949671  4.999999935869962e-11  0.999174393882551  1.0000
  W   W11       1.0  0.002760778981433194  4.999999935869962e-11  0.9994860041549016  1.0000
  W   W12       1.0  0.007239242702185356  4.999999935869962e-11  0.9996195543123916  1.0000
  W   W13       1.0  1.080000035772226e-08  0.007500000537331757  0.9995527792336466  1.0000
  W   W14       1.0  1.080000035772226e-08  0.002500000179110586  0.9995527792336466  1.0000
  W   W15       1.0  0.009249999981526202  0.005000000358221172  0.9993069821293407  1.0000
  W   W16       1.0  0.0007593784394360231  0.005000000358221172  0.9997936988010214  1.0000
  W   W17       1.0  0.007239242702185356  0.005000000358221172  0.9994860041549016  1.0000
  W   W18       1.0  0.0007500217983100368  4.999999935869962e-11  0.9993069821293407  1.0000
  W   W19       1.0  0.009240613753460634  4.999999935869962e-11  0.9997937059283164  1.0000
  W   W20       1.0  0.002760778981433194  0.005000000358221172  0.9996195543123916  1.0000
