data_image0
_chemical_formula_structural       COCaZn5CaZn5CaZn5CaZn5
_chemical_formula_sum              "C1 O1 Ca4 Zn20"
_cell_length_a       5.475161783754324
_cell_length_b       8.628786087036133
_cell_length_c       108.32613372802734
_cell_angle_alpha    90.0
_cell_angle_beta     120.0000014833302
_cell_angle_gamma    90.0

_space_group_name_H-M_alt    "P 1"
_space_group_IT_number       1

loop_
  _space_group_symop_operation_xyz
  'x, y, z'

loop_
  _atom_site_type_symbol
  _atom_site_label
  _atom_site_symmetry_multiplicity
  _atom_site_fract_x
  _atom_site_fract_y
  _atom_site_fract_z
  _atom_site_occupancy
  C   C1        1.0  0.0018165323851380697  0.0024999931700598523  0.00018511415661345208  1.0000
  O   O1        1.0  0.0018165323851380697  0.0024999931700598523  0.00029589097385704843  1.0000
  Ca  Ca1       1.0  9.897600080158458e-06  2.149999864042065e-09  0.9994970689396021  1.0000
  Zn  Zn1       1.0  9.897600080158458e-06  0.002500002020487983  0.9992443525677126  1.0000
  Zn  Zn2       1.0  0.005009897791031441  0.002500002020487983  0.9992443525395243  1.0000
  Zn  Zn3       1.0  0.005009897791031441  0.002500002020487983  0.9994970691865304  1.0000
  Zn  Zn4       1.0  0.006676564489124356  2.149999864042065e-09  0.999665546665874  1.0000
  Zn  Zn5       1.0  0.003343231092938527  2.149999864042065e-09  0.9993285914320701  1.0000
  Ca  Ca2       1.0  0.009990102491804789  0.009999992539736678  4.865699019759983e-07  1.0000
  Zn  Zn6       1.0  9.897600080158458e-06  0.002500002020487983  0.9997497855866082  1.0000
  Zn  Zn7       1.0  0.005009897791031441  0.002500002020487983  0.9997497855584199  1.0000
  Zn  Zn8       1.0  0.0050870170175394665  0.0025000074170905017  1.0771665934441475e-05  1.0000
  Zn  Zn9       1.0  0.006638614937906259  0.009999997720475096  0.00016776880695383182  1.0000
  Zn  Zn10      1.0  0.003343231092938527  2.149999864042065e-09  0.9998340244509658  1.0000
  Ca  Ca3       1.0  9.897600080158458e-06  0.005000001882334959  0.9994970689396021  1.0000
  Zn  Zn11      1.0  9.897600080158458e-06  0.007500002175910136  0.9992443525677126  1.0000
  Zn  Zn12      1.0  0.005009897791031441  0.007500002175910136  0.9992443525395243  1.0000
  Zn  Zn13      1.0  0.005009897791031441  0.007500002175910136  0.9994970691865304  1.0000
  Zn  Zn14      1.0  0.006676564489124356  0.005000001882334959  0.999665546665874  1.0000
  Zn  Zn15      1.0  0.003343231092938527  0.005000001882334959  0.9993285914320701  1.0000
  Ca  Ca4       1.0  0.009990102491804789  0.004999992816042727  4.865699019759983e-07  1.0000
  Zn  Zn16      1.0  9.897600080158458e-06  0.007500002175910136  0.9997497855866082  1.0000
  Zn  Zn17      1.0  0.005009897791031441  0.007500002175910136  0.9997497855584199  1.0000
  Zn  Zn18      1.0  0.0050870170175394665  0.007500007356648554  1.0771665934441475e-05  1.0000
  Zn  Zn19      1.0  0.006638614937906259  0.004999997565052944  0.00016776880695383182  1.0000
  Zn  Zn20      1.0  0.003343231092938527  0.005000001882334959  0.9998340244509658  1.0000
