data_image0
_chemical_formula_structural       HCu4Ru12Cu4Ru12Cu4Ru12Cu4Ru12
_chemical_formula_sum              "H1 Cu16 Ru48"
_cell_length_a       7.443728446960449
_cell_length_b       16.149989648641064
_cell_length_c       99.77490997314453
_cell_angle_alpha    103.32392790495224
_cell_angle_beta     90.0
_cell_angle_gamma    90.0

_space_group_name_H-M_alt    "P 1"
_space_group_IT_number       1

loop_
  _space_group_symop_operation_xyz
  'x, y, z'

loop_
  _atom_site_type_symbol
  _atom_site_label
  _atom_site_symmetry_multiplicity
  _atom_site_fract_x
  _atom_site_fract_y
  _atom_site_fract_z
  _atom_site_occupancy
  H   H1        1.0  0.0062499999999999995  0.007793289549587796  0.00029071001482878096  1.0000
  Cu  Cu1       1.0  0.0012499999749769869  0.00062499999762951  0.9997851148760963  1.0000
  Cu  Cu2       1.0  0.0012499999749769869  0.005625000037927839  0.9995986019636668  1.0000
  Cu  Cu3       1.0  0.003750000050046026  0.0031250000474097985  0.999691858420987  1.0000
  Cu  Cu4       1.0  0.003750000050046026  0.008125000265494871  0.9995053452164937  1.0000
  Ru  Ru1       1.0  0.003750000050046026  0.0018750000521507784  0.9994587171891391  1.0000
  Ru  Ru2       1.0  0.003750000050046026  0.006875000151711355  0.9996452302262641  1.0000
  Ru  Ru3       1.0  0.0012499999749769869  0.0018750000521507784  0.999645230162811  1.0000
  Ru  Ru4       1.0  0.0012499999749769869  0.006875000151711355  0.9994587169538965  1.0000
  Ru  Ru5       1.0  0.0012499999749769869  0.0031250000474097985  0.9995053454473151  1.0000
  Ru  Ru6       1.0  0.0012499999749769869  0.008125000265494871  0.9996918584888612  1.0000
  Ru  Ru7       1.0  0.0012499999749769869  0.004374999924144322  0.9997384866747415  1.0000
  Ru  Ru8       1.0  0.0012499999749769869  0.009375000379278388  0.9995519734790909  1.0000
  Ru  Ru9       1.0  0.003750000050046026  0.004374999924144322  0.9995519737010696  1.0000
  Ru  Ru10      1.0  0.003750000050046026  0.009375000379278388  0.9997384867514584  1.0000
  Ru  Ru11      1.0  0.003750000050046026  0.00062499999762951  0.9995986019024244  1.0000
  Ru  Ru12      1.0  0.003750000050046026  0.005625000037927839  0.9997851149373387  1.0000
  Cu  Cu5       1.0  0.0012499999749769869  0.00062499999762951  0.00015814112213573218  1.0000
  Cu  Cu6       1.0  0.0012499999749769869  0.005625000037927839  0.9999716279110106  1.0000
  Cu  Cu7       1.0  0.003750000050046026  0.0031250000474097985  6.488436833071797e-05  1.0000
  Cu  Cu8       1.0  0.003750000050046026  0.008125000265494871  0.9998783714625331  1.0000
  Ru  Ru13      1.0  0.003750000050046026  0.0018750000521507784  0.9998317431364829  1.0000
  Ru  Ru14      1.0  0.003750000050046026  0.006875000151711355  1.8256173607798235e-05  1.0000
  Ru  Ru15      1.0  0.0012499999749769869  0.0018750000521507784  1.825611015481764e-05  1.0000
  Ru  Ru16      1.0  0.0012499999749769869  0.006875000151711355  0.999831743199936  1.0000
  Ru  Ru17      1.0  0.0012499999749769869  0.0031250000474097985  0.9998783713946588  1.0000
  Ru  Ru18      1.0  0.0012499999749769869  0.008125000265494871  6.488443620497124e-05  1.0000
  Ru  Ru19      1.0  0.0012499999749769869  0.004374999924144322  0.00011151262208534566  1.0000
  Ru  Ru20      1.0  0.0012499999749769869  0.009375000379278388  0.9999249997251303  1.0000
  Ru  Ru21      1.0  0.003750000050046026  0.004374999924144322  0.9999249996484134  1.0000
  Ru  Ru22      1.0  0.003750000050046026  0.009375000379278388  0.0001115126988021443  1.0000
  Ru  Ru23      1.0  0.003750000050046026  0.00062499999762951  0.9999716278497682  1.0000
  Ru  Ru24      1.0  0.003750000050046026  0.005625000037927839  0.00015814088468251868  1.0000
  Cu  Cu9       1.0  0.0062499999999999995  0.00062499999762951  0.9997851148760963  1.0000
  Cu  Cu10      1.0  0.0062499999999999995  0.005625000037927839  0.9995986019636668  1.0000
  Cu  Cu11      1.0  0.008750000200184105  0.0031250000474097985  0.999691858420987  1.0000
  Cu  Cu12      1.0  0.008750000200184105  0.008125000265494871  0.9995053452164937  1.0000
  Ru  Ru25      1.0  0.008750000200184105  0.0018750000521507784  0.9994587171891391  1.0000
  Ru  Ru26      1.0  0.008750000200184105  0.006875000151711355  0.9996452302262641  1.0000
  Ru  Ru27      1.0  0.0062499999999999995  0.0018750000521507784  0.999645230162811  1.0000
  Ru  Ru28      1.0  0.0062499999999999995  0.006875000151711355  0.9994587169538965  1.0000
  Ru  Ru29      1.0  0.0062499999999999995  0.0031250000474097985  0.9995053454473151  1.0000
  Ru  Ru30      1.0  0.0062499999999999995  0.008125000265494871  0.9996918584888612  1.0000
  Ru  Ru31      1.0  0.0062499999999999995  0.004374999924144322  0.9997384866747415  1.0000
  Ru  Ru32      1.0  0.0062499999999999995  0.009375000379278388  0.9995519734790909  1.0000
  Ru  Ru33      1.0  0.008750000200184105  0.004374999924144322  0.9995519737010696  1.0000
  Ru  Ru34      1.0  0.008750000200184105  0.009375000379278388  0.9997384867514584  1.0000
  Ru  Ru35      1.0  0.008750000200184105  0.00062499999762951  0.9995986019024244  1.0000
  Ru  Ru36      1.0  0.008750000200184105  0.005625000037927839  0.9997851149373387  1.0000
  Cu  Cu13      1.0  0.0062499999999999995  0.00062499999762951  0.00015814112213573218  1.0000
  Cu  Cu14      1.0  0.0062499999999999995  0.005625000037927839  0.9999716279110106  1.0000
  Cu  Cu15      1.0  0.008750000200184105  0.0031250000474097985  6.488436833071797e-05  1.0000
  Cu  Cu16      1.0  0.008750000200184105  0.008125000265494871  0.9998783714625331  1.0000
  Ru  Ru37      1.0  0.008750000200184105  0.0018750000521507784  0.9998317431364829  1.0000
  Ru  Ru38      1.0  0.008750000200184105  0.006875000151711355  1.8256173607798235e-05  1.0000
  Ru  Ru39      1.0  0.0062499999999999995  0.0018750000521507784  1.825611015481764e-05  1.0000
  Ru  Ru40      1.0  0.0062499999999999995  0.006875000151711355  0.999831743199936  1.0000
  Ru  Ru41      1.0  0.0062499999999999995  0.0031250000474097985  0.9998783713946588  1.0000
  Ru  Ru42      1.0  0.0062499999999999995  0.008125000265494871  6.488443620497124e-05  1.0000
  Ru  Ru43      1.0  0.0062499999999999995  0.004374999924144322  0.00011151262208534566  1.0000
  Ru  Ru44      1.0  0.0062499999999999995  0.009375000379278388  0.9999249997251303  1.0000
  Ru  Ru45      1.0  0.008750000200184105  0.004374999924144322  0.9999249996484134  1.0000
  Ru  Ru46      1.0  0.008750000200184105  0.009375000379278388  0.0001115126988021443  1.0000
  Ru  Ru47      1.0  0.008750000200184105  0.00062499999762951  0.9999716278497682  1.0000
  Ru  Ru48      1.0  0.008750000200184105  0.005625000037927839  0.00015814088468251868  1.0000
