data_image0
_chemical_formula_structural       COCa12Ga20
_chemical_formula_sum              "C1 O1 Ca12 Ga20"
_cell_length_a       17.59566737041835
_cell_length_b       5.94904505896298
_cell_length_c       99.4759521484375
_cell_angle_alpha    87.05716475598517
_cell_angle_beta     88.00061091558344
_cell_angle_gamma    98.12694318117562

_space_group_name_H-M_alt    "P 1"
_space_group_IT_number       1

loop_
  _space_group_symop_operation_xyz
  'x, y, z'

loop_
  _atom_site_type_symbol
  _atom_site_label
  _atom_site_symmetry_multiplicity
  _atom_site_fract_x
  _atom_site_fract_y
  _atom_site_fract_z
  _atom_site_occupancy
  C   C1        1.0  0.004396603712946676  0.0022501520179027917  4.504955849490019e-05  1.0000
  O   O1        1.0  0.004396603712946676  0.0022501520179027917  0.00016568137407324229  1.0000
  Ca  Ca1       1.0  0.006303271764476178  0.008313290072055543  0.9997883725680927  1.0000
  Ca  Ca2       1.0  0.0010431641928831622  0.007703968717088411  0.9998584990882505  1.0000
  Ca  Ca3       1.0  0.0029593360231620156  0.006175832051704086  0.9997070654496671  1.0000
  Ca  Ca4       1.0  0.004264734983257252  0.009811040867401291  0.9999207490732958  1.0000
  Ca  Ca5       1.0  0.007674419286453055  0.004047005436902499  0.9997761611238797  1.0000
  Ca  Ca6       1.0  0.009597560440316786  0.0020654993682884303  0.9998636580883358  1.0000
  Ca  Ca7       1.0  0.007577603955404987  0.0022785536588518984  0.9993988674260513  1.0000
  Ca  Ca8       1.0  0.002251804547489333  0.0015139478899021455  0.9994954059560045  1.0000
  Ca  Ca9       1.0  0.004199820822239726  0.00018895887591552756  0.9993329988569373  1.0000
  Ca  Ca10      1.0  0.005629587894713307  0.0036035426853370015  0.9995612745237592  1.0000
  Ca  Ca11      1.0  0.008979471043315455  0.008053503456991606  0.999398291339121  1.0000
  Ca  Ca12      1.0  0.0008499377271522565  0.005738997753899297  0.9994959822070973  1.0000
  Ga  Ga1       1.0  0.00580902389541868  0.0030163609031719535  0.9998702846982662  1.0000
  Ga  Ga2       1.0  0.0013675945754549224  0.002883490041728802  0.9997789201041635  1.0000
  Ga  Ga3       1.0  0.0004024390502234759  0.0005221459694294496  0.9995979330411474  1.0000
  Ga  Ga4       1.0  0.008155906687498335  0.009553742021681829  0.999663811726845  1.0000
  Ga  Ga5       1.0  0.004613328741494231  0.005024358499627194  0.9998203369479128  1.0000
  Ga  Ga6       1.0  0.0026087709982350327  0.000796755157462762  0.9998176313282641  1.0000
  Ga  Ga7       1.0  0.008074775010250158  0.008572630425577453  0.9999238478366548  1.0000
  Ga  Ga8       1.0  0.00936756805272412  0.007003056591776861  0.9997293073813404  1.0000
  Ga  Ga9       1.0  0.003830504896211184  0.0017350389769017675  0.9996456698952142  1.0000
  Ga  Ga10      1.0  0.004688535273560597  0.008236130553890681  0.9996148902297264  1.0000
  Ga  Ga11      1.0  0.007212168057612193  0.007029227566986902  0.9995071507500127  1.0000
  Ga  Ga12      1.0  0.0026172410874582665  0.006763273802938419  0.9993871224938121  1.0000
  Ga  Ga13      1.0  0.0016524390801916959  0.00427214575485506  0.9992275424987368  1.0000
  Ga  Ga14      1.0  0.009426969345641488  0.003270355651453677  0.9992963403413474  1.0000
  Ga  Ga15      1.0  0.005921936441700572  0.008768677496156885  0.9994439994707047  1.0000
  Ga  Ga16      1.0  0.003907472275252462  0.005023823378501515  0.999450274076876  1.0000
  Ga  Ga17      1.0  0.00917858332093962  0.003066146510442162  0.9995645218981554  1.0000
  Ga  Ga18      1.0  0.0006508256635868059  0.0007263551644063784  0.9993297514805409  1.0000
  Ga  Ga19      1.0  0.005140873443392437  0.00555637094779432  0.9992793833159292  1.0000
  Ga  Ga20      1.0  0.0059385354105581725  0.0019861306010788738  0.9992444998206685  1.0000
