data_image0
_chemical_formula_structural       HRh12Sn6V6
_chemical_formula_sum              "H1 Rh12 Sn6 V6"
_cell_length_a       4.698841929943411
_cell_length_b       7.466218778047033
_cell_length_c       37.891666412353516
_cell_angle_alpha    92.5086472309043
_cell_angle_beta     92.40831039311792
_cell_angle_gamma    84.81600798750898

_space_group_name_H-M_alt    "P 1"
_space_group_IT_number       1

loop_
  _space_group_symop_operation_xyz
  'x, y, z'

loop_
  _atom_site_type_symbol
  _atom_site_label
  _atom_site_symmetry_multiplicity
  _atom_site_fract_x
  _atom_site_fract_y
  _atom_site_fract_z
  _atom_site_occupancy
  H   H1        1.0  8.936787947857619e-05  0.0036172955501489554  0.0005702647137674415  1.0000
  Rh  Rh1       1.0  0.0017190082772218717  0.004627447414544563  0.9979615877418533  1.0000
  Rh  Rh2       1.0  0.005052341904278248  0.009071891388780888  0.9984323499582421  1.0000
  Rh  Rh3       1.0  0.008385674785666613  0.00018300270386705593  0.9974908255670099  1.0000
  Rh  Rh4       1.0  0.005052341856524807  0.0074052248357664215  0.9977262064929632  1.0000
  Rh  Rh5       1.0  0.008385674800304947  0.001849669491915943  0.9981969686408865  1.0000
  Rh  Rh6       1.0  0.001719008324975313  0.006294113967559031  0.9986677308138754  1.0000
  Rh  Rh7       1.0  0.0017190083727287543  0.007960780520573498  0.9993738742791544  1.0000
  Rh  Rh8       1.0  0.005147569474604393  0.0027081753935457448  0.999847177979311  1.0000
  Rh  Rh9       1.0  0.008385674848058388  0.00351633604493041  0.9989031121061654  1.0000
  Rh  Rh10      1.0  0.005052341727325909  0.0007385581849776352  0.9991384929604044  1.0000
  Rh  Rh11      1.0  0.008429679993005694  0.005310097679974061  0.9996086430401595  1.0000
  Rh  Rh12      1.0  0.0014564029679399008  9.477509936407904e-05  8.406496303760884e-06  1.0000
  Sn  Sn1       1.0  0.006719008749047185  0.005460780440348416  0.9983146591050033  1.0000
  Sn  Sn2       1.0  5.2341409560812916e-05  0.009905225417398265  0.9987854216710705  1.0000
  Sn  Sn3       1.0  0.0033856747870500887  0.0010163360273811736  0.9978438972763422  1.0000
  Sn  Sn4       1.0  0.006593966842920823  0.008773284608041429  0.9997980564600631  1.0000
  Sn  Sn5       1.0  0.009947658626536598  0.0035236415414652642  0.0002443402239709741  1.0000
  Sn  Sn6       1.0  0.0033856748207421045  0.004349669572141025  0.999256183817105  1.0000
  V   V1        1.0  0.006719008701293744  0.0037941138873339485  0.9976085160329812  1.0000
  V   V2        1.0  5.234153164183142e-05  0.008238558362977036  0.9980792782023521  1.0000
  V   V3        1.0  0.0033856748083114442  0.0026830027684231765  0.9985500403498478  1.0000
  V   V4        1.0  0.006719008726155064  0.007127447494769646  0.9990208025742385  1.0000
  V   V5        1.0  0.009910748648238158  0.0015970815731682912  0.9995183542703364  1.0000
  V   V6        1.0  0.002926790359479163  0.005949142604864772  0.999922756164688  1.0000
