data_image0
_chemical_formula_structural       COV30Pt10
_chemical_formula_sum              "C1 O1 V30 Pt10"
_cell_length_a       6.816593170166016
_cell_length_b       10.777980719746155
_cell_length_c       103.39434814453125
_cell_angle_alpha    75.0367825242444
_cell_angle_beta     90.0
_cell_angle_gamma    71.56505218625028

_space_group_name_H-M_alt    "P 1"
_space_group_IT_number       1

loop_
  _space_group_symop_operation_xyz
  'x, y, z'

loop_
  _atom_site_type_symbol
  _atom_site_label
  _atom_site_symmetry_multiplicity
  _atom_site_fract_x
  _atom_site_fract_y
  _atom_site_fract_z
  _atom_site_occupancy
  C   C1        1.0  0.009496154523360813  0.006319115609770045  0.9999304177365071  1.0000
  O   O1        1.0  0.009496154523360813  0.006319115609770045  4.64778977190533e-05  1.0000
  V   V1        1.0  0.007563530659603608  0.002749999863693728  0.9994066218393814  1.0000
  V   V2        1.0  0.005567082878631848  0.006692095762849864  0.999569902363536  1.0000
  V   V3        1.0  0.009563530632031742  0.008749999394194345  0.999245131632492  1.0000
  V   V4        1.0  0.0036195982401420676  0.0007875453619700896  0.9997206963561647  1.0000
  V   V5        1.0  0.0015635303905670612  0.004749999833403445  0.9990836413319671  1.0000
  V   V6        1.0  0.0006391572246800954  0.0017607146877096087  0.9995643166951285  1.0000
  V   V7        1.0  0.00857671420079676  0.00563438635279795  0.9997269536601469  1.0000
  V   V8        1.0  0.002563530282123994  0.007749999787968021  0.9994066215877689  1.0000
  V   V9        1.0  0.006563530581450823  0.009749999757677739  0.999083641368594  1.0000
  V   V10       1.0  0.004563530251833711  0.0037499998485485864  0.9992451315856743  1.0000
  V   V11       1.0  0.00606353068232132  0.0057499998182583036  0.9993258767308413  1.0000
  V   V12       1.0  0.004063530712611603  0.009749999757677739  0.9994873670211754  1.0000
  V   V13       1.0  0.008063530652031038  0.0017499998788388692  0.9991643864405073  1.0000
  V   V14       1.0  0.0020050619457638746  0.003685990044553371  0.9996548950079304  1.0000
  V   V15       1.0  0.009936470769887712  0.007962090832803454  0.9997857000339206  1.0000
  V   V16       1.0  0.004063530259406282  0.004749999833403445  0.9994873666963091  1.0000
  V   V17       1.0  0.002088956144617404  0.008711414874855092  0.9996491322427161  1.0000
  V   V18       1.0  0.0060635301817874325  0.000749999988641144  0.9993258766916667  1.0000
  V   V19       1.0  0.00975285694975609  0.0028735503297884816  0.9997997570531761  1.0000
  V   V20       1.0  0.008063530369418844  0.006750000181741696  0.9991643864669434  1.0000
  V   V21       1.0  0.0005635300844524083  0.004250000030290283  0.9993662492800159  1.0000
  V   V22       1.0  0.008533783163542615  0.008293246920811024  0.9995231997175075  1.0000
  V   V23       1.0  0.002563530374742316  0.00024999999621371465  0.9992047589922296  1.0000
  V   V24       1.0  0.006525931320972468  0.0023188034911247046  0.9996842736025007  1.0000
  V   V25       1.0  0.004563530657030862  0.0062499999999999995  0.9990432687726016  1.0000
  V   V26       1.0  0.00956353094121255  0.0062499999999999995  0.9994469941369436  1.0000
  V   V27       1.0  0.007508570991109742  0.00026848059462884224  0.9996065607421568  1.0000
  V   V28       1.0  0.0015635301639644005  0.0022499998712662986  0.9992855041399443  1.0000
  V   V29       1.0  0.005556056519981414  0.004497440592274378  0.9997431028510573  1.0000
  V   V30       1.0  0.0035635306721760037  0.008249999969709716  0.9991240139177687  1.0000
  Pt  Pt1       1.0  0.008114460344598572  0.004240970497022344  0.9995585629243249  1.0000
  Pt  Pt2       1.0  0.006137578810937501  0.008187777671021359  0.9997231791709383  1.0000
  Pt  Pt3       1.0  6.35301643385658e-05  0.00024999999621371465  0.9994066216744006  1.0000
  Pt  Pt4       1.0  0.004063530306055245  0.0022499998712662986  0.9990836414577734  1.0000
  Pt  Pt5       1.0  0.002063530241688394  0.0062499999999999995  0.9992451314547727  1.0000
  Pt  Pt6       1.0  0.008063529964221694  0.004250000030290283  0.9991643863096056  1.0000
  Pt  Pt7       1.0  0.006063529994511979  0.008249999969709716  0.999325876888179  1.0000
  Pt  Pt8       1.0  9.810886053108236e-05  0.0003489626803044222  0.9997935487719608  1.0000
  Pt  Pt9       1.0  0.004063530306055245  0.0022499998712662986  0.9994873671103547  1.0000
  Pt  Pt10      1.0  0.0019326720595877291  0.006241129490716149  0.9996568803382626  1.0000
