data_image0
_chemical_formula_structural       COFe8As16
_chemical_formula_sum              "C1 O1 Fe8 As16"
_cell_length_a       8.374112856856
_cell_length_b       6.083756697627623
_cell_length_c       104.26045989990234
_cell_angle_alpha    112.71780836054245
_cell_angle_beta     105.74305440773593
_cell_angle_gamma    70.64049676098543

_space_group_name_H-M_alt    "P 1"
_space_group_IT_number       1

loop_
  _space_group_symop_operation_xyz
  'x, y, z'

loop_
  _atom_site_type_symbol
  _atom_site_label
  _atom_site_symmetry_multiplicity
  _atom_site_fract_x
  _atom_site_fract_y
  _atom_site_fract_z
  _atom_site_occupancy
  C   C1        1.0  0.004695843598415897  0.007304625987977436  0.0002669434445893898  1.0000
  O   O1        1.0  0.004695843598415897  0.007304625987977436  0.00038204004334040206  1.0000
  Fe  Fe1       1.0  0.008221417876779725  0.0010799015959488227  0.00011223847244406044  1.0000
  Fe  Fe2       1.0  0.005696298107879771  0.00871530619006074  0.9999190585340881  1.0000
  Fe  Fe3       1.0  0.0006962981843668998  0.003715305949580823  0.9995083029307208  1.0000
  Fe  Fe4       1.0  0.0031962981461233354  0.006215306069820781  0.9997136807324044  1.0000
  Fe  Fe5       1.0  0.008196297591591654  0.0012153062333717017  0.999713680804042  1.0000
  Fe  Fe6       1.0  0.005696298107879771  0.00871530619006074  0.9995083028201351  1.0000
  Fe  Fe7       1.0  0.0006962981843668998  0.003715305949580823  0.9999190583588289  1.0000
  Fe  Fe8       1.0  0.0030379580779708562  0.006427981137123116  0.00011514929651170177  1.0000
  As  As1       1.0  0.009552107475858062  0.0007552824573282797  0.9999394653859024  1.0000
  As  As2       1.0  0.007052107036057072  0.008255282432756555  0.9997340876674272  1.0000
  As  As3       1.0  0.002175366837240102  0.003429121028099159  0.0001496268159677671  1.0000
  As  As4       1.0  0.0045521070743006365  0.005755282312516597  0.9995287095798986  1.0000
  As  As5       1.0  0.009340488625170788  0.004175329778998098  0.9996932740367989  1.0000
  As  As6       1.0  0.006840489141458905  0.0016753294834296485  0.9994878962415819  1.0000
  As  As7       1.0  0.001840489098434896  0.006675329207121597  0.9998986518683342  1.0000
  As  As8       1.0  0.004429763043946628  0.009185695187498222  0.00011642114848194929  1.0000
  As  As9       1.0  0.005944703443034436  0.004362686088481592  0.999825062143314  1.0000
  As  As10      1.0  0.003444703481278001  0.0018626863001593797  0.9996196840632652  1.0000
  As  As11      1.0  0.008488049138574424  0.006793720975363089  4.0574482562636567e-05  1.0000
  As  As12      1.0  0.0009150744973732485  0.009432074307935943  0.00021968938601006377  1.0000
  As  As13      1.0  0.00044789278945666543  0.00806792540924054  0.999602299591572  1.0000
  As  As14      1.0  0.009088341157252702  0.004797167524586252  0.00023287260355418294  1.0000
  As  As15      1.0  0.0029478928109686704  0.0005679257531835683  0.9998076773081287  1.0000
  As  As16      1.0  0.005521827621386755  0.0031758044897279994  2.1484234541825228e-05  1.0000
