data_image0
_chemical_formula_structural       HCo24V8
_chemical_formula_sum              "H1 Co24 V8"
_cell_length_a       4.992762088775635
_cell_length_b       6.114859580993652
_cell_length_c       104.59086608886719
_cell_angle_alpha    90.0
_cell_angle_beta     90.0
_cell_angle_gamma    90.0

_space_group_name_H-M_alt    "P 1"
_space_group_IT_number       1

loop_
  _space_group_symop_operation_xyz
  'x, y, z'

loop_
  _atom_site_type_symbol
  _atom_site_label
  _atom_site_symmetry_multiplicity
  _atom_site_fract_x
  _atom_site_fract_y
  _atom_site_fract_z
  _atom_site_occupancy
  H   H1        1.0  0.009999999492626054  0.008420997346533279  0.00011779727001384644  1.0000
  Co  Co1       1.0  0.007500000179073158  0.004961573738146055  0.9991231208695731  1.0000
  Co  Co2       1.0  0.0025000004327601307  0.0016282402423542493  0.9992609230570918  1.0000
  Co  Co3       1.0  0.007500000179073158  0.008294907233937861  0.9993987252446106  1.0000
  Co  Co4       1.0  0.0025000004327601307  0.008294907233937861  0.9989853186820543  1.0000
  Co  Co5       1.0  0.0025000004327601307  0.004961573738146055  0.9991231208695731  1.0000
  Co  Co6       1.0  0.007500000179073158  0.0016282402423542493  0.9992609230570918  1.0000
  Co  Co7       1.0  0.0025000004327601307  0.008294907233937861  0.9993987252446106  1.0000
  Co  Co8       1.0  0.007500000179073158  0.008294907233937861  0.9989853186820543  1.0000
  Co  Co9       1.0  4.4999997032955937e-10  0.0016282402423542493  0.9990542196333427  1.0000
  Co  Co10      1.0  0.005000000492451183  0.008294907233937861  0.9991920221058034  1.0000
  Co  Co11      1.0  4.4999997032955937e-10  0.004961573738146055  0.9993298242933222  1.0000
  Co  Co12      1.0  0.005000000492451183  0.0016282402423542493  0.9994676264808409  1.0000
  Co  Co13      1.0  0.007500000179073158  0.0016282402423542493  0.9996743301895319  1.0000
  Co  Co14      1.0  0.0024607224144844496  0.008327516913876475  0.9998121252535026  1.0000
  Co  Co15      1.0  0.007549770578633603  0.0049817873289604705  0.9999433108046548  1.0000
  Co  Co16      1.0  0.0025000004327601307  0.004961573738146055  0.9995365277170712  1.0000
  Co  Co17      1.0  0.0025000004327601307  0.0016282402423542493  0.9996743301895319  1.0000
  Co  Co18      1.0  0.0075392858452649385  0.008327544328743686  0.9998121246836187  1.0000
  Co  Co19      1.0  0.0024502223852835864  0.004981799208736262  0.9999433090950033  1.0000
  Co  Co20      1.0  0.007500000179073158  0.004961573738146055  0.9995365277170712  1.0000
  Co  Co21      1.0  4.4999997032955937e-10  0.008294907233937861  0.9996054289533015  1.0000
  Co  Co22      1.0  0.005000025861148488  0.004931870643351146  0.9997416733633337  1.0000
  Co  Co23      1.0  1.1749999492111628e-08  0.0016433111086893966  0.9998861617130479  1.0000
  Co  Co24      1.0  0.004999965797026927  0.008227372840829427  7.279126334695316e-06  1.0000
  V   V1        1.0  4.4999997032955937e-10  0.0016282402423542493  0.9994676264808409  1.0000
  V   V2        1.0  0.005000000492451183  0.0016282402423542493  0.9990542196333427  1.0000
  V   V3        1.0  4.4999997032955937e-10  0.008294907233937861  0.9991920221058034  1.0000
  V   V4        1.0  0.005000000492451183  0.004961573738146055  0.9993298242933222  1.0000
  V   V5        1.0  0.009999999492626054  0.008420997346533279  0.0  1.0000
  V   V6        1.0  0.005000000492451183  0.008294907233937861  0.9996054289533015  1.0000
  V   V7        1.0  0.009999976362343217  0.004990034330237004  0.999745451693217  1.0000
  V   V8        1.0  0.005000010938385368  0.0015790025316228665  0.9998866005236074  1.0000
