data_image0
_chemical_formula_structural       HZn2As2Pt10Zn2As2Pt10
_chemical_formula_sum              "H1 Zn4 As4 Pt20"
_cell_length_a       5.641026973724365
_cell_length_b       8.229794584560585
_cell_length_c       103.84616088867188
_cell_angle_alpha    110.04266538084435
_cell_angle_beta     90.0
_cell_angle_gamma    69.95733461915565

_space_group_name_H-M_alt    "P 1"
_space_group_IT_number       1

loop_
  _space_group_symop_operation_xyz
  'x, y, z'

loop_
  _atom_site_type_symbol
  _atom_site_label
  _atom_site_symmetry_multiplicity
  _atom_site_fract_x
  _atom_site_fract_y
  _atom_site_fract_z
  _atom_site_occupancy
  H   H1        1.0  0.008249823741803485  0.006423295374567157  0.00017445990375598418  1.0000
  Zn  Zn1       1.0  2.6470399848912955e-06  0.001346425845647231  0.9992558160242134  1.0000
  Zn  Zn2       1.0  0.005002646840216246  0.001346425845647231  0.9995274209278767  1.0000
  As  As1       1.0  0.007502646617033786  0.006346425975023888  0.9991200133290884  1.0000
  As  As2       1.0  0.0025026467755279174  0.006346425975023888  0.999391618519737  1.0000
  Pt  Pt1       1.0  0.0011115354761704463  0.004128648732232962  0.9991955799891541  1.0000
  Pt  Pt2       1.0  0.0061115353176763145  0.004128648732232962  0.9994671848928174  1.0000
  Pt  Pt3       1.0  0.008893758835536787  0.008564202700308185  0.9993160518456156  1.0000
  Pt  Pt4       1.0  0.0038937583336387032  0.008564202700308185  0.9995876567492789  1.0000
  Pt  Pt5       1.0  0.0061115353176763145  0.004128648732232962  0.9991955799891541  1.0000
  Pt  Pt6       1.0  0.0011115354761704463  0.004128648732232962  0.9994671848928174  1.0000
  Pt  Pt7       1.0  0.0038937583336387032  0.008564202700308185  0.9993160518456156  1.0000
  Pt  Pt8       1.0  0.008893758835536787  0.008564202700308185  0.9995876567492789  1.0000
  Pt  Pt9       1.0  2.6470399848912955e-06  0.001346425845647231  0.9995274209278767  1.0000
  Pt  Pt10      1.0  0.005002646840216246  0.001346425845647231  0.9992558160242134  1.0000
  Zn  Zn3       1.0  2.6470399848912955e-06  0.001346425845647231  0.9997990261185253  1.0000
  Zn  Zn4       1.0  0.0049494341556898  0.0014553620259018277  7.185610489738861e-05  1.0000
  As  As3       1.0  0.007502646617033786  0.006346425975023888  0.9996632234234003  1.0000
  As  As4       1.0  0.0025336867121751685  0.0062682959293342624  0.9999515729771654  1.0000
  Pt  Pt11      1.0  0.0011115354761704463  0.004128648732232962  0.999738790083466  1.0000
  Pt  Pt12      1.0  0.006289748265808731  0.003992899498556777  7.44293965676356e-06  1.0000
  Pt  Pt13      1.0  0.008951412552950786  0.008518199466098761  0.9998517693907847  1.0000
  Pt  Pt14      1.0  0.003989134715043943  0.008652383759731194  0.00011531870275014705  1.0000
  Pt  Pt15      1.0  0.0061115353176763145  0.004128648732232962  0.999738790083466  1.0000
  Pt  Pt16      1.0  0.0010687890635272224  0.003990061233454278  7.485810820406676e-06  1.0000
  Pt  Pt17      1.0  0.00388401777355007  0.00851704232127805  0.9998517620689205  1.0000
  Pt  Pt18      1.0  0.008707610556812129  0.008653574024976112  0.00011548763595367283  1.0000
  Pt  Pt19      1.0  0.009997352473699407  0.0013551625219215806  6.910134613402092e-05  1.0000
  Pt  Pt20      1.0  0.005002646840216246  0.001346425845647231  0.9997990261185253  1.0000
