data_image0
_chemical_formula_structural       COIn28Pd12
_chemical_formula_sum              "C1 O1 In28 Pd12"
_cell_length_a       9.692076683044434
_cell_length_b       9.692076683044434
_cell_length_c       108.768310546875
_cell_angle_alpha    90.0
_cell_angle_beta     90.0
_cell_angle_gamma    90.0

_space_group_name_H-M_alt    "P 1"
_space_group_IT_number       1

loop_
  _space_group_symop_operation_xyz
  'x, y, z'

loop_
  _atom_site_type_symbol
  _atom_site_label
  _atom_site_symmetry_multiplicity
  _atom_site_fract_x
  _atom_site_fract_y
  _atom_site_fract_z
  _atom_site_occupancy
  C   C1        1.0  0.002896184655819478  0.0015961011069673269  0.9999817856949963  1.0000
  O   O1        1.0  0.002896184655819478  0.0015961011069673269  9.21121702201385e-05  1.0000
  In  In1       1.0  0.007062851604353452  0.0007627677653060959  0.9995544624707502  1.0000
  In  In2       1.0  0.008688553583093925  0.007388470610788538  0.9999220935409723  1.0000
  In  In3       1.0  0.00543714924124847  0.004137065500214063  0.9996323689297779  1.0000
  In  In4       1.0  0.007062851604353452  0.008262768416803939  0.9993316937061252  1.0000
  In  In5       1.0  0.009562851389109327  0.0007627677653060959  0.9997772312353751  1.0000
  In  In6       1.0  0.0004371488549621372  0.0023884700803655148  0.9994765560117224  1.0000
  In  In7       1.0  0.0004371488549621372  0.0023884700803655148  0.9991868311265298  1.0000
  In  In8       1.0  0.008688553583093925  0.007388470610788538  0.9996323689297779  1.0000
  In  In9       1.0  0.009562851389109327  0.005762767863319046  0.9993316937061252  1.0000
  In  In10      1.0  0.008688553583093925  0.004137065500214063  0.9996323689297779  1.0000
  In  In11      1.0  0.008688553583093925  0.004137065500214063  0.9999220935409723  1.0000
  In  In12      1.0  0.002062851266112683  0.008262768416803939  0.9997772312353751  1.0000
  In  In13      1.0  0.0004371488549621372  0.009137066222819342  0.9994765560117224  1.0000
  In  In14      1.0  0.002062851266112683  0.005762767863319046  0.9995544624707502  1.0000
  In  In15      1.0  0.002062851266112683  0.005762767863319046  0.0  1.0000
  In  In16      1.0  0.0036885536292176656  0.0023884700803655148  0.9994765560117224  1.0000
  In  In17      1.0  0.0004371488549621372  0.009137066222819342  0.9991868311265298  1.0000
  In  In18      1.0  0.002062851266112683  0.0032627680785631713  0.9997772312353751  1.0000
  In  In19      1.0  0.004562851435233067  0.005762767863319046  0.9993316937061252  1.0000
  In  In20      1.0  0.00543714924124847  0.007388470610788538  0.9999220935409723  1.0000
  In  In21      1.0  0.00543714924124847  0.007388470610788538  0.9996323689297779  1.0000
  In  In22      1.0  0.0036885536292176656  0.0023884700803655148  0.9991868311265298  1.0000
  In  In23      1.0  0.004562851435233067  0.0007627677653060959  0.9997772312353751  1.0000
  In  In24      1.0  0.0036885536292176656  0.009137066222819342  0.9991868311265298  1.0000
  In  In25      1.0  0.0036885536292176656  0.009137066222819342  0.9994765560117224  1.0000
  In  In26      1.0  0.007062851604353452  0.0032627680785631713  0.9993316937061252  1.0000
  In  In27      1.0  0.00543714924124847  0.004137065500214063  0.9999220935409723  1.0000
  In  In28      1.0  0.007062851604353452  0.0007627677653060959  0.0  1.0000
  Pd  Pd1       1.0  0.007062851604353452  0.005762767863319046  0.9991957568922167  1.0000
  Pd  Pd2       1.0  0.003588386700633748  0.005762767863319046  0.9997772312353751  1.0000
  Pd  Pd3       1.0  0.002062851266112683  0.0007627677653060959  0.9999131677752854  1.0000
  Pd  Pd4       1.0  0.007062851604353452  0.002288303343963851  0.9997772312353751  1.0000
  Pd  Pd5       1.0  0.007062851604353452  0.009237232382674241  0.9997772312353751  1.0000
  Pd  Pd6       1.0  0.005537315785467878  0.0007627677653060959  0.9993316937061252  1.0000
  Pd  Pd7       1.0  0.002062851266112683  0.0007627677653060959  0.9996412946954648  1.0000
  Pd  Pd8       1.0  0.008588387423239025  0.0007627677653060959  0.9993316937061252  1.0000
  Pd  Pd9       1.0  0.007062851604353452  0.005762767863319046  0.9994676302460355  1.0000
  Pd  Pd10      1.0  0.002062851266112683  0.0072883036822046195  0.9993316937061252  1.0000
  Pd  Pd11      1.0  0.002062851266112683  0.004237232428797982  0.9993316937061252  1.0000
  Pd  Pd12      1.0  0.000537315687454928  0.005762767863319046  0.9997772312353751  1.0000
