data_image0
_chemical_formula_structural       COIr2W2Ir2W2Ir2W2Ir2W2Ir2W2Ir2W2Ir2W2Ir2W2
_chemical_formula_sum              "C1 O1 Ir16 W16"
_cell_length_a       5.565191745758057
_cell_length_b       8.99203109741211
_cell_length_c       104.06819915771484
_cell_angle_alpha    90.0
_cell_angle_beta     90.0
_cell_angle_gamma    90.0

_space_group_name_H-M_alt    "P 1"
_space_group_IT_number       1

loop_
  _space_group_symop_operation_xyz
  'x, y, z'

loop_
  _atom_site_type_symbol
  _atom_site_label
  _atom_site_symmetry_multiplicity
  _atom_site_fract_x
  _atom_site_fract_y
  _atom_site_fract_z
  _atom_site_occupancy
  C   C1        1.0  0.0037499980319899155  0.005000000066286075  0.00013929411813867702  1.0000
  O   O1        1.0  0.0037499980319899155  0.005000000066286075  0.00025460277929715837  1.0000
  Ir  Ir1       1.0  0.002500000194123444  0.0012500000165715187  0.9993142758425011  1.0000
  Ir  Ir2       1.0  0.002500000194123444  0.0037500000497145566  0.9994784993030277  1.0000
  W   W1        1.0  2.9999999434504385e-10  0.0012500000165715187  0.9995496257650145  1.0000
  W   W2        1.0  2.9999999434504385e-10  0.0037500000497145566  0.9992431493805143  1.0000
  Ir  Ir3       1.0  0.0025000010308624254  0.0012500002237155032  0.9997812980854631  1.0000
  Ir  Ir4       1.0  0.0024999961777763327  0.003749999221138619  0.9999457191433596  1.0000
  W   W3        1.0  0.009999999437711404  0.0012500003272874953  0.0  1.0000
  W   W4        1.0  2.9999999434504385e-10  0.0037500000497145566  0.99971081252625  1.0000
  Ir  Ir5       1.0  0.002500000194123444  0.006250000082857594  0.9993142758425011  1.0000
  Ir  Ir6       1.0  0.002500000194123444  0.0087500005302886  0.9994784993030277  1.0000
  W   W5        1.0  2.9999999434504385e-10  0.006250000082857594  0.9995496257650145  1.0000
  W   W6        1.0  2.9999999434504385e-10  0.0087500005302886  0.9992431493805143  1.0000
  Ir  Ir7       1.0  0.0025000010308624254  0.006250000497145563  0.9997812980854631  1.0000
  Ir  Ir8       1.0  0.0024999961777763327  0.008749999701712663  0.9999457191433596  1.0000
  W   W7        1.0  0.009999999437711404  0.006250000497145563  0.0  1.0000
  W   W8        1.0  2.9999999434504385e-10  0.0087500005302886  0.99971081252625  1.0000
  Ir  Ir9       1.0  0.007500000080326943  0.0012500000165715187  0.9993142758425011  1.0000
  Ir  Ir10      1.0  0.007500000080326943  0.0037500000497145566  0.9994784993030277  1.0000
  W   W9        1.0  0.005000000053551295  0.0012500000165715187  0.9995496257650145  1.0000
  W   W10       1.0  0.005000000053551295  0.0037500000497145566  0.9992431493805143  1.0000
  Ir  Ir11      1.0  0.007500000749718128  0.0012500002237155032  0.9997812980854631  1.0000
  Ir  Ir12      1.0  0.007499996063979831  0.003749999221138619  0.9999457191433596  1.0000
  W   W11       1.0  0.00499999938416011  0.0012500003272874953  0.0  1.0000
  W   W12       1.0  0.005000000053551295  0.0037500000497145566  0.99971081252625  1.0000
  Ir  Ir13      1.0  0.007500000080326943  0.006250000082857594  0.9993142758425011  1.0000
  Ir  Ir14      1.0  0.007500000080326943  0.0087500005302886  0.9994784993030277  1.0000
  W   W13       1.0  0.005000000053551295  0.006250000082857594  0.9995496257650145  1.0000
  W   W14       1.0  0.005000000053551295  0.0087500005302886  0.9992431493805143  1.0000
  Ir  Ir15      1.0  0.007500000749718128  0.006250000497145563  0.9997812980854631  1.0000
  Ir  Ir16      1.0  0.007499996063979831  0.008749999701712663  0.9999457191433596  1.0000
  W   W15       1.0  0.00499999938416011  0.006250000497145563  0.0  1.0000
  W   W16       1.0  0.005000000053551295  0.0087500005302886  0.99971081252625  1.0000
