data_image0
_chemical_formula_structural       COCa20
_chemical_formula_sum              "C1 O1 Ca20"
_cell_length_a       7.945345401763916
_cell_length_b       11.918018605429927
_cell_length_c       107.47811889648438
_cell_angle_alpha    92.02486821234642
_cell_angle_beta     90.0
_cell_angle_gamma    90.0

_space_group_name_H-M_alt    "P 1"
_space_group_IT_number       1

loop_
  _space_group_symop_operation_xyz
  'x, y, z'

loop_
  _atom_site_type_symbol
  _atom_site_label
  _atom_site_symmetry_multiplicity
  _atom_site_fract_x
  _atom_site_fract_y
  _atom_site_fract_z
  _atom_site_occupancy
  C   C1        1.0  0.0037499999718681306  0.009529665561573671  0.00022330526295494694  1.0000
  O   O1        1.0  0.0037499999718681306  0.009529665561573671  0.0003349561221428778  1.0000
  Ca  Ca1       1.0  0.00124999999062271  0.0022203345447686772  0.9999499288382367  1.0000
  Ca  Ca2       1.0  0.00124999999062271  0.0077203343383394135  0.9997755761543676  1.0000
  Ca  Ca3       1.0  0.00124999999062271  0.004220334313317685  0.999252519192055  1.0000
  Ca  Ca4       1.0  0.00124999999062271  0.003220334350850278  0.9996012238761959  1.0000
  Ca  Ca5       1.0  0.00124999999062271  0.00872033461357843  0.9994268717487396  1.0000
  Ca  Ca6       1.0  0.0037499999718681306  0.0004703345322578127  0.9996883999411494  1.0000
  Ca  Ca7       1.0  0.0037499999718681306  0.0059703346386001605  0.9995140478130804  1.0000
  Ca  Ca8       1.0  0.0037499999718681306  0.004970334363361142  0.9998627522187085  1.0000
  Ca  Ca9       1.0  0.0037499999718681306  0.0014703344947252193  0.9993396955342959  1.0000
  Ca  Ca10      1.0  0.0037499999718681306  0.009470334663621889  3.710505268036896e-05  1.0000
  Ca  Ca11      1.0  0.006250000187545794  0.0022203345447686772  0.9999499288382367  1.0000
  Ca  Ca12      1.0  0.006250000187545794  0.0077203343383394135  0.9997755761543676  1.0000
  Ca  Ca13      1.0  0.006250000187545794  0.004220334313317685  0.999252519192055  1.0000
  Ca  Ca14      1.0  0.006250000187545794  0.003220334350850278  0.9996012238761959  1.0000
  Ca  Ca15      1.0  0.006250000187545794  0.00872033461357843  0.9994268717487396  1.0000
  Ca  Ca16      1.0  0.008750000637655702  0.0004703345322578127  0.9996883999411494  1.0000
  Ca  Ca17      1.0  0.008750000637655702  0.0059703346386001605  0.9995140478130804  1.0000
  Ca  Ca18      1.0  0.008750000637655702  0.004970334363361142  0.9998627522187085  1.0000
  Ca  Ca19      1.0  0.008750000637655702  0.0014703344947252193  0.9993396955342959  1.0000
  Ca  Ca20      1.0  0.008750000637655702  0.009470334663621889  3.710505268036896e-05  1.0000
