data_image0
_chemical_formula_structural       Al4Fe6Si8Al4Fe6Si8H
_chemical_formula_sum              "Al8 Fe12 Si16 H1"
_cell_length_a       7.351654052734375
_cell_length_b       6.407843886265861
_cell_length_c       39.60914993286133
_cell_angle_alpha    90.0
_cell_angle_beta     90.0
_cell_angle_gamma    106.66781630935407

_space_group_name_H-M_alt    "P 1"
_space_group_IT_number       1

loop_
  _space_group_symop_operation_xyz
  'x, y, z'

loop_
  _atom_site_type_symbol
  _atom_site_label
  _atom_site_symmetry_multiplicity
  _atom_site_fract_x
  _atom_site_fract_y
  _atom_site_fract_z
  _atom_site_occupancy
  Al  Al1       1.0  0.00030379105812306493  0.0011842066816843528  0.0  1.0000
  Al  Al2       1.0  0.004713805720866304  0.008822821710541086  0.9980084379446141  1.0000
  Al  Al3       1.0  0.004713805720866304  0.008822821710541086  0.9987284492155962  1.0000
  Al  Al4       1.0  0.00028619424411317404  0.0011108173244230306  0.9992911356838735  1.0000
  Fe  Fe1       1.0  0.003235563401317304  0.0029117334073595117  0.9996359881572103  1.0000
  Fe  Fe2       1.0  0.0017633470343953375  0.007020986686590129  0.9983684435801052  1.0000
  Fe  Fe3       1.0  0.0007497687239504735  0.0029666732448905705  0.9986871765148434  1.0000
  Fe  Fe4       1.0  0.004250951029660568  0.006970828315958887  0.9993216812745773  1.0000
  Fe  Fe5       1.0  0.004303552228067984  0.007182745186485924  0.999900423044656  1.0000
  Fe  Fe6       1.0  0.0007497687239504735  0.0029666732448905705  0.9980497106453671  1.0000
  Si  Si1       1.0  0.001599623489612199  0.006366092608407331  0.9989738533957072  1.0000
  Si  Si2       1.0  0.0034041873599786614  0.003584347253534152  0.9990418144570546  1.0000
  Si  Si3       1.0  0.0027285182784351895  0.0008816719408166279  0.9983684435801052  1.0000
  Si  Si4       1.0  0.0022875333328961833  0.009118328380820313  0.9996946972084071  1.0000
  Si  Si5       1.0  0.0037038571546912577  0.004783027445840903  0.9983684435801052  1.0000
  Si  Si6       1.0  0.0012703020791266619  0.0050502567672606555  0.9997233158769788  1.0000
  Si  Si7       1.0  0.001599623489612199  0.006366092608407331  0.9977630337645033  1.0000
  Si  Si8       1.0  0.0034041873599786614  0.003584347253534152  0.9976950727031557  1.0000
  Al  Al5       1.0  0.005303790909687336  0.0011842066816843528  0.0  1.0000
  Al  Al6       1.0  0.009713805700597176  0.008822821710541086  0.9980084379446141  1.0000
  Al  Al7       1.0  0.009713805700597176  0.008822821710541086  0.9987284492155962  1.0000
  Al  Al8       1.0  0.005286194034810681  0.0011108173244230306  0.9992911356838735  1.0000
  Fe  Fe7       1.0  0.008235563381048175  0.0029117334073595117  0.9996359881572103  1.0000
  Fe  Fe8       1.0  0.006763347208108092  0.007020986686590129  0.9983684435801052  1.0000
  Fe  Fe9       1.0  0.005749768847683202  0.0029666732448905705  0.9986871765148434  1.0000
  Fe  Fe10      1.0  0.009250951262755531  0.006970828315958887  0.9993216812745773  1.0000
  Fe  Fe11      1.0  0.009303552461162948  0.007182745186485924  0.999900423044656  1.0000
  Fe  Fe12      1.0  0.005749768847683202  0.0029666732448905705  0.9980497106453671  1.0000
  Si  Si9       1.0  0.006599623688562393  0.006366092608407331  0.9989738533957072  1.0000
  Si  Si10      1.0  0.008404187086345443  0.003584347253534152  0.9990418144570546  1.0000
  Si  Si11      1.0  0.0077285182581660625  0.0008816719408166279  0.9983684435801052  1.0000
  Si  Si12      1.0  0.007287533146851722  0.009118328380820313  0.9996946972084071  1.0000
  Si  Si13      1.0  0.00870385713442213  0.004783027445840903  0.9983684435801052  1.0000
  Si  Si14      1.0  0.006270301910896863  0.0050502567672606555  0.9997233158769788  1.0000
  Si  Si15      1.0  0.006599623688562393  0.006366092608407331  0.9977630337645033  1.0000
  Si  Si16      1.0  0.008404187086345443  0.003584347253534152  0.9976950727031557  1.0000
  H   H1        1.0  0.0027615483466647806  0.0010150306574136729  4.4043074548257824e-05  1.0000
