data_image0
_chemical_formula_structural       HMo4Ni16Mo4Ni16
_chemical_formula_sum              "H1 Mo8 Ni32"
_cell_length_a       8.915484239115822
_cell_length_b       6.7538470867051625
_cell_length_c       103.60829162597656
_cell_angle_alpha    85.97768120684731
_cell_angle_beta     87.96986166764495
_cell_angle_gamma    71.29808196352023

_space_group_name_H-M_alt    "P 1"
_space_group_IT_number       1

loop_
  _space_group_symop_operation_xyz
  'x, y, z'

loop_
  _atom_site_type_symbol
  _atom_site_label
  _atom_site_symmetry_multiplicity
  _atom_site_fract_x
  _atom_site_fract_y
  _atom_site_fract_z
  _atom_site_occupancy
  H   H1        1.0  0.0014179004114407583  0.006458549273488881  6.631065314350856e-05  1.0000
  Mo  Mo1       1.0  0.0009421574957683596  0.00864079557506368  0.9999423762558611  1.0000
  Mo  Mo2       1.0  0.0040664472192481005  0.007374226396220907  0.9993450295890676  1.0000
  Mo  Mo3       1.0  0.004691447586272758  0.0011242259148714897  0.9995477660631833  1.0000
  Mo  Mo4       1.0  0.0003246001286387804  0.004858045249188374  0.9997535501167588  1.0000
  Ni  Ni1       1.0  0.0026910880558994365  0.009117559045155108  0.9995483258007093  1.0000
  Ni  Ni2       1.0  0.003313710109813401  0.002883367026781222  0.9997488836310542  1.0000
  Ni  Ni3       1.0  0.003972730944980637  0.006617678723206587  0.9999550957284469  1.0000
  Ni  Ni4       1.0  0.002066088077225336  0.0053675594419037185  0.9993455895501591  1.0000
  Ni  Ni5       1.0  0.0016918067525062321  0.0031308929421204083  0.9995472057939052  1.0000
  Ni  Ni6       1.0  0.002307046986824217  0.006876575278689293  0.999751538198892  1.0000
  Ni  Ni7       1.0  0.0029229230378197677  0.0006191072445848202  0.9999473572339058  1.0000
  Ni  Ni8       1.0  0.001066806612135311  0.009380893350538096  0.9993444693194321  1.0000
  Ni  Ni9       1.0  0.0006998195629155558  0.007119208641860612  0.9995477203593202  1.0000
  Ni  Ni10      1.0  0.0013100861836722667  0.0008654396321643744  0.9997480895356445  1.0000
  Ni  Ni11      1.0  0.0019497987917836198  0.00461323560319717  0.9999515593109091  1.0000
  Ni  Ni12      1.0  7.481962051486038e-05  0.0033692084551553833  0.9993449838236831  1.0000
  Ni  Ni13      1.0  0.0030580753020160766  0.001379243596300055  0.9993450752729479  1.0000
  Ni  Ni14      1.0  0.003683075175089984  0.005129243637141824  0.9995478118094634  1.0000
  Ni  Ni15      1.0  0.004322789985522471  0.008857213773789887  0.9997505927159196  1.0000
  Ni  Ni16      1.0  0.004925180267255387  0.002663494489600556  0.9999496200025162  1.0000
  Mo  Mo5       1.0  0.005942157872065028  0.00864079557506368  0.9999423762748492  1.0000
  Mo  Mo6       1.0  0.009066447386491065  0.007374226396220907  0.9993450296086929  1.0000
  Mo  Mo7       1.0  0.009691447335408313  0.0011242259148714897  0.9995477660840831  1.0000
  Mo  Mo8       1.0  0.0053246001913548925  0.004858045249188374  0.9997535501367028  1.0000
  Ni  Ni17      1.0  0.007691088223142401  0.009117559045155108  0.9995483258203346  1.0000
  Ni  Ni18      1.0  0.008313709858948956  0.002883367026781222  0.9997488836519539  1.0000
  Ni  Ni19      1.0  0.008972731112223601  0.006617678723206587  0.9999550957480722  1.0000
  Ni  Ni20      1.0  0.007066087826360891  0.0053675594419037185  0.9993455895710589  1.0000
  Ni  Ni21      1.0  0.006691806710695492  0.0031308929421204083  0.9995472058141678  1.0000
  Ni  Ni22      1.0  0.007307046735959772  0.006876575278689293  0.9997515382197918  1.0000
  Ni  Ni23      1.0  0.007922922786955321  0.0006191072445848202  0.9999473572548057  1.0000
  Ni  Ni24      1.0  0.006066806779378275  0.009380893350538096  0.9993444693390574  1.0000
  Ni  Ni25      1.0  0.005699819939212224  0.007119208641860612  0.9995477203783082  1.0000
  Ni  Ni26      1.0  0.006310086246388378  0.0008654396321643744  0.9997480895555885  1.0000
  Ni  Ni27      1.0  0.006949798959026584  0.00461323560319717  0.9999515593305344  1.0000
  Ni  Ni28      1.0  0.005074819683230972  0.0033692084551553833  0.999344983843627  1.0000
  Ni  Ni29      1.0  0.008058075469259041  0.001379243596300055  0.9993450752925732  1.0000
  Ni  Ni30      1.0  0.008683074924225539  0.005129243637141824  0.9995478118303632  1.0000
  Ni  Ni31      1.0  0.009322790570872845  0.008857213773789887  0.9997505927342704  1.0000
  Ni  Ni32      1.0  0.009925180016390943  0.002663494489600556  0.999949620023416  1.0000
