data_image0
_chemical_formula_structural       HMn4Rh8Sn4Mn4Rh8Sn4Mn4Rh8Sn4Mn4Rh8Sn4
_chemical_formula_sum              "H1 Mn16 Rh32 Sn16"
_cell_length_a       8.837678909301758
_cell_length_b       8.837678909301758
_cell_length_c       107.4950942993164
_cell_angle_alpha    90.0
_cell_angle_beta     90.0
_cell_angle_gamma    90.0

_space_group_name_H-M_alt    "P 1"
_space_group_IT_number       1

loop_
  _space_group_symop_operation_xyz
  'x, y, z'

loop_
  _atom_site_type_symbol
  _atom_site_label
  _atom_site_symmetry_multiplicity
  _atom_site_fract_x
  _atom_site_fract_y
  _atom_site_fract_z
  _atom_site_occupancy
  H   H1        1.0  2.2585000268972107e-07  0.0025004822567292165  0.0001146141502485841  1.0000
  Mn  Mn1       1.0  0.002500076751018509  1.5955000443474714e-07  0.9993896505254906  1.0000
  Mn  Mn2       1.0  7.67500030342883e-08  0.0025001595804074427  0.9990989778442563  1.0000
  Mn  Mn3       1.0  0.002499805711338691  0.009999840798963804  0.9999294548222352  1.0000
  Mn  Mn4       1.0  7.67500030342883e-08  0.0025001595804074427  0.9996803237612119  1.0000
  Rh  Rh1       1.0  7.67500030342883e-08  1.5955000443474714e-07  0.9989536412263956  1.0000
  Rh  Rh2       1.0  0.002500076751018509  0.0025001595804074427  0.9989536412263956  1.0000
  Rh  Rh3       1.0  0.002500076751018509  0.0025001595804074427  0.999244314462117  1.0000
  Rh  Rh4       1.0  7.67500030342883e-08  1.5955000443474714e-07  0.999244314462117  1.0000
  Rh  Rh5       1.0  7.67500030342883e-08  1.5955000443474714e-07  0.9995349871433512  1.0000
  Rh  Rh6       1.0  0.002500076751018509  0.0025001595804074427  0.9995349871433512  1.0000
  Rh  Rh7       1.0  0.002500360436406561  0.0024999791683033025  0.9998365072560272  1.0000
  Rh  Rh8       1.0  0.009999923417590935  5.884499923699327e-07  0.9998364884034653  1.0000
  Sn  Sn1       1.0  0.002500076751018509  1.5955000443474714e-07  0.9990989778442563  1.0000
  Sn  Sn2       1.0  7.67500030342883e-08  0.0025001595804074427  0.9993896505254906  1.0000
  Sn  Sn3       1.0  0.002500076751018509  1.5955000443474714e-07  0.9996803237612119  1.0000
  Sn  Sn4       1.0  2.2585000268972107e-07  0.0025004822567292165  0.0  1.0000
  Mn  Mn5       1.0  0.002500076751018509  0.005000159824891135  0.9993896505254906  1.0000
  Mn  Mn6       1.0  7.67500030342883e-08  0.007500159437089416  0.9990989778442563  1.0000
  Mn  Mn7       1.0  0.002499805711338691  0.004999840731520028  0.9999294548222352  1.0000
  Mn  Mn8       1.0  7.67500030342883e-08  0.007500159437089416  0.9996803237612119  1.0000
  Rh  Rh9       1.0  7.67500030342883e-08  0.005000159824891135  0.9989536412263956  1.0000
  Rh  Rh10      1.0  0.002500076751018509  0.007500159437089416  0.9989536412263956  1.0000
  Rh  Rh11      1.0  0.002500076751018509  0.007500159437089416  0.999244314462117  1.0000
  Rh  Rh12      1.0  7.67500030342883e-08  0.005000159824891135  0.999244314462117  1.0000
  Rh  Rh13      1.0  7.67500030342883e-08  0.005000159824891135  0.9995349871433512  1.0000
  Rh  Rh14      1.0  0.002500076751018509  0.007500159437089416  0.9995349871433512  1.0000
  Rh  Rh15      1.0  0.002500360436406561  0.007499979024985276  0.9998365072560272  1.0000
  Rh  Rh16      1.0  0.009999923417590935  0.005000588514400272  0.9998364884034653  1.0000
  Sn  Sn5       1.0  0.002500076751018509  0.005000159824891135  0.9990989778442563  1.0000
  Sn  Sn6       1.0  7.67500030342883e-08  0.007500159437089416  0.9993896505254906  1.0000
  Sn  Sn7       1.0  0.002500076751018509  0.005000159824891135  0.9996803237612119  1.0000
  Sn  Sn8       1.0  2.2585000268972107e-07  0.007500482324172994  0.0  1.0000
  Mn  Mn9       1.0  0.007500076818462286  1.5955000443474714e-07  0.9993896505254906  1.0000
  Mn  Mn10      1.0  0.005000076784740398  0.0025001595804074427  0.9990989778442563  1.0000
  Mn  Mn11      1.0  0.0074998053572588605  0.009999840798963804  0.9999294548222352  1.0000
  Mn  Mn12      1.0  0.005000076784740398  0.0025001595804074427  0.9996803237612119  1.0000
  Rh  Rh17      1.0  0.005000076784740398  1.5955000443474714e-07  0.9989536412263956  1.0000
  Rh  Rh18      1.0  0.007500076818462286  0.0025001595804074427  0.9989536412263956  1.0000
  Rh  Rh19      1.0  0.007500076818462286  0.0025001595804074427  0.999244314462117  1.0000
  Rh  Rh20      1.0  0.005000076784740398  1.5955000443474714e-07  0.999244314462117  1.0000
  Rh  Rh21      1.0  0.005000076784740398  1.5955000443474714e-07  0.9995349871433512  1.0000
  Rh  Rh22      1.0  0.007500076818462286  0.0025001595804074427  0.9995349871433512  1.0000
  Rh  Rh23      1.0  0.007500360082326731  0.0024999791683033025  0.9998365072560272  1.0000
  Rh  Rh24      1.0  0.004999923350147157  5.884499923699327e-07  0.9998364884034653  1.0000
  Sn  Sn9       1.0  0.007500076818462286  1.5955000443474714e-07  0.9990989778442563  1.0000
  Sn  Sn10      1.0  0.005000076784740398  0.0025001595804074427  0.9993896505254906  1.0000
  Sn  Sn11      1.0  0.007500076818462286  1.5955000443474714e-07  0.9996803237612119  1.0000
  Sn  Sn12      1.0  0.00500022600409756  0.0025004822567292165  0.0  1.0000
  Mn  Mn13      1.0  0.007500076818462286  0.005000159824891135  0.9993896505254906  1.0000
  Mn  Mn14      1.0  0.005000076784740398  0.007500159437089416  0.9990989778442563  1.0000
  Mn  Mn15      1.0  0.0074998053572588605  0.004999840731520028  0.9999294548222352  1.0000
  Mn  Mn16      1.0  0.005000076784740398  0.007500159437089416  0.9996803237612119  1.0000
  Rh  Rh25      1.0  0.005000076784740398  0.005000159824891135  0.9989536412263956  1.0000
  Rh  Rh26      1.0  0.007500076818462286  0.007500159437089416  0.9989536412263956  1.0000
  Rh  Rh27      1.0  0.007500076818462286  0.007500159437089416  0.999244314462117  1.0000
  Rh  Rh28      1.0  0.005000076784740398  0.005000159824891135  0.999244314462117  1.0000
  Rh  Rh29      1.0  0.005000076784740398  0.005000159824891135  0.9995349871433512  1.0000
  Rh  Rh30      1.0  0.007500076818462286  0.007500159437089416  0.9995349871433512  1.0000
  Rh  Rh31      1.0  0.007500360082326731  0.007499979024985276  0.9998365072560272  1.0000
  Rh  Rh32      1.0  0.004999923350147157  0.005000588514400272  0.9998364884034653  1.0000
  Sn  Sn13      1.0  0.007500076818462286  0.005000159824891135  0.9990989778442563  1.0000
  Sn  Sn14      1.0  0.005000076784740398  0.007500159437089416  0.9993896505254906  1.0000
  Sn  Sn15      1.0  0.007500076818462286  0.005000159824891135  0.9996803237612119  1.0000
  Sn  Sn16      1.0  0.00500022600409756  0.007500482324172994  0.0  1.0000
