data_image0
_chemical_formula_structural       COCu16Zn48
_chemical_formula_sum              "C1 O1 Cu16 Zn48"
_cell_length_a       7.035637546449638
_cell_length_b       10.350837063163508
_cell_length_c       110.12171173095703
_cell_angle_alpha    85.50356689429347
_cell_angle_beta     89.76954520546352
_cell_angle_gamma    71.35450003009572

_space_group_name_H-M_alt    "P 1"
_space_group_IT_number       1

loop_
  _space_group_symop_operation_xyz
  'x, y, z'

loop_
  _atom_site_type_symbol
  _atom_site_label
  _atom_site_symmetry_multiplicity
  _atom_site_fract_x
  _atom_site_fract_y
  _atom_site_fract_z
  _atom_site_occupancy
  C   C1        1.0  0.0029350914961816517  0.0035137058066389325  9.467686394697284e-05  1.0000
  O   O1        1.0  0.0029350914961816517  0.0035137058066389325  0.0002036468801720013  1.0000
  Cu  Cu1       1.0  0.0014583331407088526  0.003923611117886265  0.9996929198487718  1.0000
  Cu  Cu2       1.0  0.008958332582999487  0.0010069443610253729  0.9995411114492724  1.0000
  Cu  Cu3       1.0  0.0064583332270919825  0.008090277886180226  0.9993893034924045  1.0000
  Cu  Cu4       1.0  0.003958333413956942  0.006840277398369209  0.9998447278609623  1.0000
  Cu  Cu5       1.0  0.00854166670646433  0.007743055528454943  0.9997182211217319  1.0000
  Cu  Cu6       1.0  0.006041666612297797  0.004826388866869642  0.9995664131123037  1.0000
  Cu  Cu7       1.0  0.0035416665181312664  0.0019097222052843399  0.9994146045616138  1.0000
  Cu  Cu8       1.0  0.0010416666135175132  0.000659722193851269  0.9998700294679463  1.0000
  Cu  Cu9       1.0  0.0014583331282997  0.0022569443724584437  0.9990856869336675  1.0000
  Cu  Cu10      1.0  0.008958333398390141  0.009340277611786529  0.9989338788587404  1.0000
  Cu  Cu11      1.0  0.006458332595649108  0.0064236113313035845  0.9987820705760551  1.0000
  Cu  Cu12      1.0  0.003958333132925452  0.005173611224594924  0.9992374949417147  1.0000
  Cu  Cu13      1.0  0.008541666075021452  0.006076388973578302  0.9991109882053826  1.0000
  Cu  Cu14      1.0  0.006041666599888644  0.0031597221214418212  0.9989591801971993  1.0000
  Cu  Cu15      1.0  0.003541666483336919  0.00024305550749431385  0.998807371916795  1.0000
  Cu  Cu16      1.0  0.001041666856582768  0.008993055254061246  0.9992627966083348  1.0000
  Zn  Zn1       1.0  0.001066891077510271  0.0056555182042047165  0.999868497594179  1.0000
  Zn  Zn2       1.0  0.008566890564571295  0.0027388513520682357  0.9997166891953702  1.0000
  Zn  Zn3       1.0  0.00606689134297496  0.009822184591396322  0.999564881240574  1.0000
  Zn  Zn4       1.0  0.00356689106972687  0.006905518310913377  0.9994130732283834  1.0000
  Zn  Zn5       1.0  0.0022979727998917376  0.006271058725397617  0.9996442314970772  1.0000
  Zn  Zn6       1.0  0.009797972197411981  0.0033543920638123156  0.9994924236381486  1.0000
  Zn  Zn7       1.0  0.007297972645147546  0.002104392147654834  0.9999478480024271  1.0000
  Zn  Zn8       1.0  0.004797972894058269  0.009187725386982919  0.9997960400477669  1.0000
  Zn  Zn9       1.0  0.0047601355107686535  0.004219256225883233  0.999793742470651  1.0000
  Zn  Zn10      1.0  0.002260135946095066  0.0013025895642979311  0.999641933919825  1.0000
  Zn  Zn11      1.0  0.009760135246740399  0.008385922613074838  0.999490126117182  1.0000
  Zn  Zn12      1.0  0.007260136134428128  0.0071359228874685356  0.9999455504799432  1.0000
  Zn  Zn13      1.0  0.00893310876966291  0.0060111484421364915  0.9995426433763247  1.0000
  Zn  Zn14      1.0  0.006433108675496378  0.0030944817805511893  0.999390834825635  1.0000
  Zn  Zn15      1.0  0.003933108593739001  0.0018444818643937081  0.9998462597313109  1.0000
  Zn  Zn16      1.0  0.0014331088426497228  0.008927815103721794  0.9996944512353892  1.0000
  Zn  Zn17      1.0  0.007702027047281444  0.005395607920943591  0.9997669094734266  1.0000
  Zn  Zn18      1.0  0.005202027042655691  0.00247894106880711  0.999615100924118  1.0000
  Zn  Zn19      1.0  0.0027020272915664143  0.009562274308135195  0.9994632929694578  1.0000
  Zn  Zn20      1.0  0.00020202712026825615  0.008312274582528893  0.9999187173324912  1.0000
  Zn  Zn21      1.0  0.005239863985993142  0.0074474100393556175  0.9996173985027511  1.0000
  Zn  Zn22      1.0  0.0027398638918266116  0.004530743377770315  0.9994655904933228  1.0000
  Zn  Zn23      1.0  0.0002398639852749253  0.003280743652164013  0.9999210148562881  1.0000
  Zn  Zn24      1.0  0.0077398636475416414  0.0003640769905787107  0.9997692069972917  1.0000
  Zn  Zn25      1.0  0.0010668914193883692  0.0039888512682257175  0.9992612646803878  1.0000
  Zn  Zn26      1.0  0.008566890992114306  0.0010721847971915939  0.9991094568200102  1.0000
  Zn  Zn27      1.0  0.006066890711532083  0.00815551803651968  0.9989576483242245  1.0000
  Zn  Zn28      1.0  0.003566891146858497  0.005238851374934377  0.9988058403146602  1.0000
  Zn  Zn29      1.0  0.0022979726979418056  0.0046043921705209755  0.9990369991218532  1.0000
  Zn  Zn30      1.0  0.009797972624954993  0.0016877255089356735  0.9988851907215271  1.0000
  Zn  Zn31      1.0  0.007297972587968005  0.00043772549750260273  0.9993406150866322  1.0000
  Zn  Zn32      1.0  0.0047979727921083366  0.007521058832106278  0.9991888071312814  1.0000
  Zn  Zn33      1.0  0.004760136027852444  0.0025525894804554125  0.9991865095554106  1.0000
  Zn  Zn34      1.0  0.002260135568188665  0.009635923100885855  0.9990347010568628  1.0000
  Zn  Zn35      1.0  0.009760135674283412  0.006719256058198196  0.9988828932005605  1.0000
  Zn  Zn36      1.0  0.007260135502985252  0.005469256332591894  0.9993383175635938  1.0000
  Zn  Zn37      1.0  0.008933108138220035  0.00434448188725985  0.9989354104599754  1.0000
  Zn  Zn38      1.0  0.006433108573546447  0.0014278152256745477  0.9987836021797802  1.0000
  Zn  Zn39      1.0  0.003933108542155757  0.00017781520233202814  0.9992390268156024  1.0000
  Zn  Zn40      1.0  0.0014331087406997908  0.007261148548845152  0.9990872188601654  1.0000
  Zn  Zn41      1.0  0.007702026594920127  0.0037289409849645913  0.9991596765598395  1.0000
  Zn  Zn42      1.0  0.00520202698547615  0.0008122744186548788  0.9990078682789538  1.0000
  Zn  Zn43      1.0  0.002702027189616482  0.007895607753258553  0.9988560600529723  1.0000
  Zn  Zn44      1.0  0.0002020270183183242  0.006645608027652251  0.9993114844160057  1.0000
  Zn  Zn45      1.0  0.005239863884043211  0.005780743484478976  0.9990101655862657  1.0000
  Zn  Zn46      1.0  0.0027398639650823725  0.002864077013444852  0.9988583575753882  1.0000
  Zn  Zn47      1.0  0.00023986410523900873  0.001614076906736192  0.9993137819411498  1.0000
  Zn  Zn48      1.0  0.007739863799128183  0.008697410527166634  0.9991619741341932  1.0000
