data_image0
_chemical_formula_structural       Co6W2Co6W2H
_chemical_formula_sum              "Co12 W4 H1"
_cell_length_a       5.1273722648620605
_cell_length_b       5.127372108840037
_cell_length_c       98.74491119384766
_cell_angle_alpha    90.0
_cell_angle_beta     90.0
_cell_angle_gamma    120.00000100659109

_space_group_name_H-M_alt    "P 1"
_space_group_IT_number       1

loop_
  _space_group_symop_operation_xyz
  'x, y, z'

loop_
  _atom_site_type_symbol
  _atom_site_label
  _atom_site_symmetry_multiplicity
  _atom_site_fract_x
  _atom_site_fract_y
  _atom_site_fract_z
  _atom_site_occupancy
  Co  Co1       1.0  0.008376366533066105  0.006766397371756778  0.999377119584  1.0000
  Co  Co2       1.0  0.0016145127165222977  0.008385470773171644  0.9995850500114234  1.0000
  Co  Co3       1.0  0.006757293474935928  0.008385470773171644  0.9995850500114234  1.0000
  Co  Co4       1.0  0.0032335854367442716  0.001623616300801545  0.999377119584  1.0000
  Co  Co5       1.0  0.008376366558432704  0.001623616300801545  0.999377119584  1.0000
  Co  Co6       1.0  0.001614512468154469  0.0032426894924795966  0.9995850500114234  1.0000
  W   W1        1.0  0.0033287729264603483  0.006671210416186566  0.999377119584  1.0000
  W   W2        1.0  0.0066621061760810275  0.0033378766577866225  0.9995850500114234  1.0000
  Co  Co7       1.0  0.008385487919582843  0.006784495561418671  0.9997951386909008  1.0000
  Co  Co8       1.0  0.0017014610010983868  0.008298492077545896  0.9999999981891327  1.0000
  Co  Co9       1.0  0.006583380856194151  0.008298524796488847  0.0  1.0000
  Co  Co10      1.0  0.003215467680755884  0.0016145297679493371  0.9997951371818447  1.0000
  Co  Co11      1.0  0.008385475962296409  0.0016145953107036463  0.9997951414072017  1.0000
  Co  Co12      1.0  0.0017014362749943317  0.0034165806068979345  6.036224454987845e-10  1.0000
  W   W3        1.0  0.00332868905123221  0.0066712028656612694  0.9997971532808125  1.0000
  W   W4        1.0  0.00666212126153215  0.0033378835791014775  0.9999894975730708  1.0000
  H   H1        1.0  0.008315654197198312  0.006644966887624344  0.00014840540720544016  1.0000
