data_image0
_chemical_formula_structural       HV16
_chemical_formula_sum              "H1 V16"
_cell_length_a       5.190807819366455
_cell_length_b       5.1908077019391365
_cell_length_c       99.66793823242188
_cell_angle_alpha    90.0
_cell_angle_beta     90.0
_cell_angle_gamma    70.52877983767748

_space_group_name_H-M_alt    "P 1"
_space_group_IT_number       1

loop_
  _space_group_symop_operation_xyz
  'x, y, z'

loop_
  _atom_site_type_symbol
  _atom_site_label
  _atom_site_symmetry_multiplicity
  _atom_site_fract_x
  _atom_site_fract_y
  _atom_site_fract_z
  _atom_site_occupancy
  H   H1        1.0  0.006249999738305236  0.006249999923879534  0.00015049960860939908  1.0000
  V   V1        1.0  0.0012499999540044194  0.00124999996574579  0.9993621405596327  1.0000
  V   V2        1.0  0.003749999893730118  0.003749999802086787  0.9995747601737444  1.0000
  V   V3        1.0  0.0012499999540044194  0.00124999996574579  0.9997873803858883  1.0000
  V   V4        1.0  0.003749999893730118  0.003749999802086787  0.0  1.0000
  V   V5        1.0  0.0012499999679598374  0.006249999923879534  0.9993621405596327  1.0000
  V   V6        1.0  0.003749999939402396  0.008749999665069947  0.9995747601737444  1.0000
  V   V7        1.0  0.0012499999679598374  0.006249999923879534  0.9997873803858883  1.0000
  V   V8        1.0  0.003749999939402396  0.008749999665069947  0.0  1.0000
  V   V9        1.0  0.00624999972434982  0.00124999996574579  0.9993621405596327  1.0000
  V   V10       1.0  0.008749999664075518  0.003749999802086787  0.9995747601737444  1.0000
  V   V11       1.0  0.00624999972434982  0.00124999996574579  0.9997873803858883  1.0000
  V   V12       1.0  0.008749999664075518  0.003749999802086787  0.0  1.0000
  V   V13       1.0  0.006249999738305236  0.006249999923879534  0.9993621405596327  1.0000
  V   V14       1.0  0.008749999709747797  0.008749999665069947  0.9995747601737444  1.0000
  V   V15       1.0  0.006249999738305236  0.006249999923879534  0.9997873803858883  1.0000
  V   V16       1.0  0.008749999709747797  0.008749999665069947  0.0  1.0000
