data_image0
_chemical_formula_structural       HZn4Sn4As8Zn4Sn4As8
_chemical_formula_sum              "H1 Zn8 Sn8 As16"
_cell_length_a       6.0061540603637695
_cell_length_b       12.050311088562012
_cell_length_c       106.03692626953125
_cell_angle_alpha    90.0
_cell_angle_beta     90.0
_cell_angle_gamma    90.0

_space_group_name_H-M_alt    "P 1"
_space_group_IT_number       1

loop_
  _space_group_symop_operation_xyz
  'x, y, z'

loop_
  _atom_site_type_symbol
  _atom_site_label
  _atom_site_symmetry_multiplicity
  _atom_site_fract_x
  _atom_site_fract_y
  _atom_site_fract_z
  _atom_site_occupancy
  H   H1        1.0  0.007566580704603702  0.0013381257458055043  1.643840776165898e-05  1.0000
  Zn  Zn1       1.0  0.005066584277218041  0.002588138748433304  0.9994001734956908  1.0000
  Zn  Zn2       1.0  0.005066584277218041  0.0050881387855306725  0.9991169631250651  1.0000
  Zn  Zn3       1.0  6.658410064188815e-05  0.0075881388226280416  0.9991169631250651  1.0000
  Zn  Zn4       1.0  6.658410064188815e-05  8.813874997902761e-05  0.9994001734956908  1.0000
  Sn  Sn1       1.0  0.005066584277218041  0.0075881388226280416  0.9994001734956908  1.0000
  Sn  Sn2       1.0  6.658410064188815e-05  0.0050881387855306725  0.9994001734956908  1.0000
  Sn  Sn3       1.0  6.658410064188815e-05  0.002588138748433304  0.9991169631250651  1.0000
  Sn  Sn4       1.0  0.005066584277218041  8.813874997902761e-05  0.9991169631250651  1.0000
  As  As1       1.0  0.007330874992596749  0.003838138612409618  0.999258568450906  1.0000
  As  As2       1.0  0.0028022932517165616  0.003838138612409618  0.9989753580802804  1.0000
  As  As3       1.0  0.002566584128359111  0.0063381386495069865  0.9992452171630809  1.0000
  As  As4       1.0  0.007566584426076972  0.0063381386495069865  0.9989887090870493  1.0000
  As  As5       1.0  0.0023308750050016597  0.008838138995749097  0.9989753580802804  1.0000
  As  As6       1.0  0.00780229323931165  0.008838138995749097  0.999258568450906  1.0000
  As  As7       1.0  0.007566584426076972  0.0013381387298846193  0.9989620067924553  1.0000
  As  As8       1.0  0.002566584128359111  0.0013381387298846193  0.999271919738731  1.0000
  Zn  Zn5       1.0  0.0051997457236401794  0.002764390202946944  0.9999002442049025  1.0000
  Zn  Zn6       1.0  0.005066584277218041  0.0050881387855306725  0.9996833841473725  1.0000
  Zn  Zn7       1.0  6.658410064188815e-05  0.0075881388226280416  0.9996833841473725  1.0000
  Zn  Zn8       1.0  0.009933415995689997  0.009911861127908799  0.9999002515123605  1.0000
  Sn  Sn5       1.0  0.005392492919078379  0.007122490175033894  1.349069163862042e-08  1.0000
  Sn  Sn6       1.0  0.00974012949675043  0.005553605965161949  0.0  1.0000
  Sn  Sn7       1.0  6.658410064188815e-05  0.002588138748433304  0.9996833841473725  1.0000
  Sn  Sn8       1.0  0.005066584277218041  8.813874997902761e-05  0.9996833841473725  1.0000
  As  As9       1.0  0.0078115913402765896  0.004074745012966075  0.999828696321797  1.0000
  As  As10      1.0  0.0028022932517165616  0.003838138612409618  0.9995417791025877  1.0000
  As  As11      1.0  0.002566497914228357  0.006338113299638238  0.9998201561518777  1.0000
  As  As12      1.0  0.007566584426076972  0.0063381386495069865  0.9995551298283005  1.0000
  As  As13      1.0  0.0023308750050016597  0.008838138995749097  0.9995417791025877  1.0000
  As  As14      1.0  0.007321743117437866  0.008601646978746748  0.9998287283621897  1.0000
  As  As15      1.0  0.007566584426076972  0.0013381387298846193  0.9995284278147627  1.0000
  As  As16      1.0  0.002566726474711686  0.0013382245175502013  0.9998451173040821  1.0000
