data_image0
_chemical_formula_structural       COCa12Ga20
_chemical_formula_sum              "C1 O1 Ca12 Ga20"
_cell_length_a       4.537975788116455
_cell_length_b       15.265317916870117
_cell_length_c       102.99608612060547
_cell_angle_alpha    90.0
_cell_angle_beta     90.0
_cell_angle_gamma    90.0

_space_group_name_H-M_alt    "P 1"
_space_group_IT_number       1

loop_
  _space_group_symop_operation_xyz
  'x, y, z'

loop_
  _atom_site_type_symbol
  _atom_site_label
  _atom_site_symmetry_multiplicity
  _atom_site_fract_x
  _atom_site_fract_y
  _atom_site_fract_z
  _atom_site_occupancy
  C   C1        1.0  0.004999999589542731  0.0024999896431033325  0.00013365373810463675  1.0000
  O   O1        1.0  0.004999999589542731  0.0024999896431033325  0.00025016267709479094  1.0000
  Ca  Ca1       1.0  0.005000000410457269  0.0024999998926240686  0.9991912352189679  1.0000
  Ca  Ca2       1.0  6.900000201993879e-09  0.007499996993473918  0.0  1.0000
  Ca  Ca3       1.0  3.0000000878234257e-10  0.008899921438302087  0.9992362783666853  1.0000
  Ca  Ca4       1.0  0.004999998768628193  0.0010295327552738997  0.9999654916501992  1.0000
  Ca  Ca5       1.0  0.005  0.003970446164878453  0.9999654823908735  1.0000
  Ca  Ca6       1.0  3.0000000878234257e-10  0.006100077917442325  0.9992362783666853  1.0000
  Ca  Ca7       1.0  0.00999999589542731  0.0024999945238274924  0.9997274199164616  1.0000
  Ca  Ca8       1.0  0.005000000410457269  0.007499999921908414  0.9994695656331752  1.0000
  Ca  Ca9       1.0  0.00500000451502996  0.008896108616588178  0.9997746193296723  1.0000
  Ca  Ca10      1.0  3.0000000878234257e-10  0.0011000780101760835  0.9994245230641657  1.0000
  Ca  Ca11      1.0  3.0000000878234257e-10  0.0038999218970901576  0.9994245230641657  1.0000
  Ca  Ca12      1.0  0.004999999179085462  0.006103886346504489  0.9997746193296723  1.0000
  Ga  Ga1       1.0  3.0000000878234257e-10  0.0024999998926240686  0.9989694899914281  1.0000
  Ga  Ga2       1.0  0.005000000410457269  0.007499999921908414  0.9991573735752027  1.0000
  Ga  Ga3       1.0  0.005000000410457269  0.005996644146823178  0.9990183665000223  1.0000
  Ga  Ga4       1.0  3.0000000878234257e-10  0.004003355423673096  0.9991084970666085  1.0000
  Ga  Ga5       1.0  3.0000000878234257e-10  0.0009966444835931452  0.9991084970666085  1.0000
  Ga  Ga6       1.0  0.005000000410457269  0.00900335569699365  0.9990183665000223  1.0000
  Ga  Ga7       1.0  0.005000000410457269  0.0046600319677280585  0.9992075053011492  1.0000
  Ga  Ga8       1.0  6.200000311982598e-09  0.0054170347253294  0.9999908205358957  1.0000
  Ga  Ga9       1.0  0.009999999179085462  0.009582954380894276  0.9999908199571879  1.0000
  Ga  Ga10      1.0  0.005000000410457269  0.00033996800054723463  0.9992075053011492  1.0000
  Ga  Ga11      1.0  0.005000000410457269  0.0024999998926240686  0.9995034275662944  1.0000
  Ga  Ga12      1.0  3.0000000878234257e-10  0.007499999921908414  0.999691310860715  1.0000
  Ga  Ga13      1.0  3.0000000878234257e-10  0.005996644146823178  0.9995523040748885  1.0000
  Ga  Ga14      1.0  0.005000000410457269  0.004003355423673096  0.9996424349308287  1.0000
  Ga  Ga15      1.0  0.005000000410457269  0.0009966444835931452  0.9996424349308287  1.0000
  Ga  Ga16      1.0  3.0000000878234257e-10  0.00900335569699365  0.9995523040748885  1.0000
  Ga  Ga17      1.0  2.200000129644271e-09  0.0046323631424641685  0.9997514999505922  1.0000
  Ga  Ga18      1.0  0.005000000410457269  0.0053399680908406315  0.9994532958403479  1.0000
  Ga  Ga19      1.0  0.005000000410457269  0.009660031752976196  0.9994532958403479  1.0000
  Ga  Ga20      1.0  0.01  0.0003676289861479426  0.9997514987931765  1.0000
