data_image0
_chemical_formula_structural       COCo12W4Co12W4
_chemical_formula_sum              "C1 O1 Co24 W8"
_cell_length_a       5.1273722648620605
_cell_length_b       11.046376473149246
_cell_length_c       37.1486701965332
_cell_angle_alpha    111.82317013223062
_cell_angle_beta     90.0
_cell_angle_gamma    62.34362322121949

_space_group_name_H-M_alt    "P 1"
_space_group_IT_number       1

loop_
  _space_group_symop_operation_xyz
  'x, y, z'

loop_
  _atom_site_type_symbol
  _atom_site_label
  _atom_site_symmetry_multiplicity
  _atom_site_fract_x
  _atom_site_fract_y
  _atom_site_fract_z
  _atom_site_occupancy
  C   C1        1.0  0.008438664409117065  0.001578854794344631  0.0005977231977116236  1.0000
  O   O1        1.0  0.008438664409117065  0.001578854794344631  0.0009207494178397549  1.0000
  Co  Co1       1.0  0.006732493671698718  0.0007605599037669779  8.407233725244375e-05  1.0000
  Co  Co2       1.0  0.006635641540888347  0.005920160084425209  0.9995814142180922  1.0000
  Co  Co3       1.0  0.008391723661112007  0.004093886006773217  0.9999062835953305  1.0000
  Co  Co4       1.0  0.00838114906007952  0.009230740334844388  0.9993847505717381  1.0000
  Co  Co5       1.0  0.00836042101256197  0.001656807571057356  0.9996587234922636  1.0000
  Co  Co6       1.0  0.00834954509897345  0.006668534593916239  0.999105565503375  1.0000
  Co  Co7       1.0  0.0015876909965038895  0.0034303884202969504  0.9993003210751259  1.0000
  Co  Co8       1.0  0.0017063861903131184  0.0083110007811203  0.9998274424132844  1.0000
  Co  Co9       1.0  0.0017819097166533384  0.0007600752019903105  8.401635155507252e-05  1.0000
  Co  Co10      1.0  0.001561334981841779  0.005919668041860059  0.9995813365625824  1.0000
  Co  Co11      1.0  0.0034564771451189723  0.004093413679468564  0.9999062189494498  1.0000
  Co  Co12      1.0  0.0031931230409800934  0.009230776409576359  0.9993847702032121  1.0000
  W   W1        1.0  0.0066352846404328335  0.0033827947327750305  0.9992950600660606  1.0000
  W   W2        1.0  0.006640034434388767  0.008377904307877375  0.999812893332633  1.0000
  W   W3        1.0  0.003246187584499988  0.001771278987708255  0.9996717361739934  1.0000
  W   W4        1.0  0.003301950882032891  0.006716128491174973  0.9991108265356247  1.0000
  Co  Co13      1.0  0.00673047172955092  0.000858997884819334  0.9990160794115361  1.0000
  Co  Co14      1.0  0.006730472040843274  0.005858997893208807  0.9984633790251602  1.0000
  Co  Co15      1.0  0.008349545022784512  0.004239924911267569  0.9988371068437969  1.0000
  Co  Co16      1.0  0.008349544397790445  0.009239925129393856  0.9982844066811666  1.0000
  Co  Co17      1.0  0.00834954499741791  0.001668534375789953  0.998552865180207  1.0000
  Co  Co18      1.0  0.00834954509897345  0.006668534593916239  0.9980001650175767  1.0000
  Co  Co19      1.0  0.0015876909965038895  0.0034303884202969504  0.9981949203887664  1.0000
  Co  Co20      1.0  0.0015876905250478128  0.008430388848160051  0.9987476207351187  1.0000
  Co  Co21      1.0  0.0015876909711372896  0.000858997884819334  0.9990160794115361  1.0000
  Co  Co22      1.0  0.0015876909191548402  0.005858997893208807  0.9984633790251602  1.0000
  Co  Co23      1.0  0.003206763901096078  0.004239924911267569  0.9988371068437969  1.0000
  Co  Co24      1.0  0.003206763276102011  0.009239925129393856  0.9982844066811666  1.0000
  W   W5        1.0  0.0066352846404328335  0.0033827947327750305  0.9981896593797012  1.0000
  W   W6        1.0  0.006635284322514746  0.008382795370374944  0.9987423597492378  1.0000
  W   W7        1.0  0.0033019513534889673  0.0017161280633118728  0.9985581261892724  1.0000
  W   W8        1.0  0.003301950882032891  0.006716128491174973  0.9980054260498263  1.0000
