data_image0
_chemical_formula_structural       HIr4W4Ir4W4Ir4W4
_chemical_formula_sum              "H1 Ir12 W12"
_cell_length_a       4.866885185241699
_cell_length_b       9.412728778021272
_cell_length_c       100.60855102539062
_cell_angle_alpha    107.19475080629691
_cell_angle_beta     90.0
_cell_angle_gamma    90.0

_space_group_name_H-M_alt    "P 1"
_space_group_IT_number       1

loop_
  _space_group_symop_operation_xyz
  'x, y, z'

loop_
  _atom_site_type_symbol
  _atom_site_label
  _atom_site_symmetry_multiplicity
  _atom_site_fract_x
  _atom_site_fract_y
  _atom_site_fract_z
  _atom_site_occupancy
  H   H1        1.0  0.009184594979639641  0.007990140880976937  0.00022098850259276063  1.0000
  Ir  Ir1       1.0  0.006050698850023289  0.0037481113108649346  0.999592836900705  1.0000
  Ir  Ir2       1.0  0.006050698850023289  0.00874811137715101  0.9994545487344847  1.0000
  Ir  Ir3       1.0  0.002539121744765004  0.001248111174149905  0.9995236927773505  1.0000
  Ir  Ir4       1.0  0.002539121744765004  0.006248111344007972  0.9993854046139947  1.0000
  W   W1        1.0  0.0010182310310142028  0.0037481113108649346  0.9994545486971049  1.0000
  W   W2        1.0  0.0010182310310142028  0.00874811137715101  0.9995928369380849  1.0000
  W   W3        1.0  0.00757158965945362  0.001248111174149905  0.9993854045737504  1.0000
  W   W4        1.0  0.00757158965945362  0.006248111344007972  0.9995236928175949  1.0000
  Ir  Ir5       1.0  0.006011611465691115  0.003744711249505241  0.9998656947153043  1.0000
  Ir  Ir6       1.0  0.006050698850023289  0.00874811137715101  0.9997311251416849  1.0000
  Ir  Ir7       1.0  0.002539121744765004  0.001248111174149905  0.9998002691845508  1.0000
  Ir  Ir8       1.0  0.002539121744765004  0.006248111344007972  0.999661981021195  1.0000
  W   W5        1.0  0.0010182310310142028  0.0037481113108649346  0.9997311251043052  1.0000
  W   W6        1.0  0.0010078532464673831  0.008737070602783295  0.9998665803333073  1.0000
  W   W7        1.0  0.00757158965945362  0.001248111174149905  0.9996619809809507  1.0000
  W   W8        1.0  0.00757158965945362  0.006248111344007972  0.9998002692247951  1.0000
  Ir  Ir9       1.0  0.0059676076843871  0.003685408412503654  0.00013158436929876357  1.0000
  Ir  Ir10      1.0  0.0061708271790218445  0.008662069566069082  1.2581608519025054e-05  1.0000
  Ir  Ir11      1.0  0.002645487338802802  0.0011999622121315078  7.253748042333718e-05  1.0000
  Ir  Ir12      1.0  0.0024716824107307842  0.006277179030760769  0.999946965354285  1.0000
  W   W9        1.0  0.0011599559521754948  0.003686074173269467  5.48035790819426e-06  1.0000
  W   W10       1.0  0.0008154057360432439  0.00880003823115662  0.0001186581701961857  1.0000
  W   W11       1.0  0.007568276085969096  0.0012809620350615156  0.9999455278234488  1.0000
  W   W12       1.0  0.007553783316194094  0.006041391176215114  6.229020145230863e-05  1.0000
