data_image0
_chemical_formula_structural       COAs16Ir8
_chemical_formula_sum              "C1 O1 As16 Ir8"
_cell_length_a       6.16983161851608
_cell_length_b       8.806392840126627
_cell_length_c       105.22557067871094
_cell_angle_alpha    89.10559006875687
_cell_angle_beta     106.1861817489224
_cell_angle_gamma    106.18618094722119

_space_group_name_H-M_alt    "P 1"
_space_group_IT_number       1

loop_
  _space_group_symop_operation_xyz
  'x, y, z'

loop_
  _atom_site_type_symbol
  _atom_site_label
  _atom_site_symmetry_multiplicity
  _atom_site_fract_x
  _atom_site_fract_y
  _atom_site_fract_z
  _atom_site_occupancy
  C   C1        1.0  0.008444636629228331  0.0016169318988849476  0.00013591421553559564  1.0000
  O   O1        1.0  0.008444636629228331  0.0016169318988849476  0.00024995460169506084  1.0000
  As  As1       1.0  0.00652350576139426  0.005042203939951503  0.9993376322832208  1.0000
  As  As2       1.0  0.0065235062148102044  4.220414896620704e-05  0.999756085476075  1.0000
  As  As3       1.0  0.0034863598592486285  0.006388909599356466  0.9998773007109524  1.0000
  As  As4       1.0  0.003443411630370819  0.0012934930267551536  0.9994423535705174  1.0000
  As  As5       1.0  0.0034434117262788244  0.0050245000220388416  0.9995485564408081  1.0000
  As  As6       1.0  0.0035048261759540876  0.00995779491219217  0.999971967472794  1.0000
  As  As7       1.0  0.006547427956370113  0.0037581641722747986  0.9998643210192264  1.0000
  As  As8       1.0  0.006523505606381479  0.008773210714493591  0.9994438351496986  1.0000
  As  As9       1.0  0.008368250966302213  0.004104271992785953  0.9996752847400031  1.0000
  As  As10      1.0  0.008368250878508154  0.009104271904489312  0.9992568318361904  1.0000
  As  As11      1.0  0.0015553632057755137  0.0023215034406728514  0.9999512698218699  1.0000
  As  As12      1.0  0.00159866626360953  0.007258959972236711  0.9995208497528568  1.0000
  As  As13      1.0  0.0019551839327027966  0.007064765638818425  6.642414037405818e-05  1.0000
  As  As14      1.0  0.0015986664837045353  0.0009624319471302321  0.9996293566027089  1.0000
  As  As15      1.0  0.008382272870966398  0.007806381925776573  0.999782994780285  1.0000
  As  As16      1.0  0.00836825138124176  0.002807743989753634  0.9993653389737411  1.0000
  Ir  Ir1       1.0  0.007735466064309406  0.006418018794328446  0.999965265493775  1.0000
  Ir  Ir2       1.0  0.007707374384436849  0.001494179591411181  0.999565317931626  1.0000
  Ir  Ir3       1.0  0.0022595430322726786  0.0035729308441639174  0.9993208368172348  1.0000
  Ir  Ir4       1.0  0.002259542663250878  0.008572930093642473  0.9997392900432156  1.0000
  Ir  Ir5       1.0  0.002259543033852088  0.0035725244588758046  0.9997393236936466  1.0000
  Ir  Ir6       1.0  0.002259542758572868  0.008572523929095962  0.9993208707873462  1.0000
  Ir  Ir7       1.0  0.007707374518836032  0.006493772897084827  0.9995653519081193  1.0000
  Ir  Ir8       1.0  0.00757293592101692  0.0014787290037652514  0.9999641267199996  1.0000
