data_image0
_chemical_formula_structural       HSn20Pd40
_chemical_formula_sum              "H1 Sn20 Pd40"
_cell_length_a       10.540496674370448
_cell_length_b       12.120055038842056
_cell_length_c       103.13230895996094
_cell_angle_alpha    76.91585953065278
_cell_angle_beta     92.70375779606358
_cell_angle_gamma    52.52329220517465

_space_group_name_H-M_alt    "P 1"
_space_group_IT_number       1

loop_
  _space_group_symop_operation_xyz
  'x, y, z'

loop_
  _atom_site_type_symbol
  _atom_site_label
  _atom_site_symmetry_multiplicity
  _atom_site_fract_x
  _atom_site_fract_y
  _atom_site_fract_z
  _atom_site_occupancy
  H   H1        1.0  0.0032943339961917254  0.004933053483935137  0.9997821572497718  1.0000
  Sn  Sn1       1.0  0.005830612678128052  0.008985779554978339  0.9994717055119399  1.0000
  Sn  Sn2       1.0  0.003923224687447263  0.006940014303946011  0.9997030376285684  1.0000
  Sn  Sn3       1.0  0.0019574266318875787  0.004953984772869977  0.9998910407201032  1.0000
  Sn  Sn4       1.0  0.00783061303016474  0.0009857795852489212  0.9992575317143272  1.0000
  Sn  Sn5       1.0  0.009830612954420713  0.0029857795009821672  0.9990433583107009  1.0000
  Sn  Sn6       1.0  0.00016938736349623188  0.007014220589011453  0.999443266461708  1.0000
  Sn  Sn7       1.0  0.008136899413217233  0.005059261355401575  0.9996538442692112  1.0000
  Sn  Sn8       1.0  0.006435172457471169  0.0028038441026964523  0.9998759792459916  1.0000
  Sn  Sn9       1.0  0.00216938800639643  0.00901421999341731  0.99922909307515  1.0000
  Sn  Sn10      1.0  0.004169387431898128  0.0010142203304843252  0.9990149192649083  1.0000
  Sn  Sn11      1.0  0.007694521684924565  0.008631297956454974  0.9998074671250479  1.0000
  Sn  Sn12      1.0  0.005725464591969973  0.006643502505108234  0.998947531612991  1.0000
  Sn  Sn13      1.0  0.003725464886608339  0.004643502282578554  0.9991617050258347  1.0000
  Sn  Sn14      1.0  0.009725464831780245  0.0006435025022448009  0.9995900518249529  1.0000
  Sn  Sn15      1.0  0.001725464181746933  0.002643502469110786  0.9993758784229769  1.0000
  Sn  Sn16      1.0  0.008274535928279246  0.007356497416351878  0.9991107457759277  1.0000
  Sn  Sn17      1.0  0.006274536222917612  0.005356497193822199  0.9993249197667149  1.0000
  Sn  Sn18      1.0  0.004274536225696859  0.0033564973803544306  0.9995390931672687  1.0000
  Sn  Sn19      1.0  0.00027453580347463656  0.009356497638881559  0.998896572658654  1.0000
  Sn  Sn20      1.0  0.0024863216752762634  0.0012464960124841243  0.9997799099664311  1.0000
  Pd  Pd1       1.0  0.0013720978127636726  0.003947086650596359  0.9995793901449123  1.0000
  Pd  Pd2       1.0  0.009336798844206582  0.002022034342377149  0.9997853275612113  1.0000
  Pd  Pd3       1.0  0.007372098220207466  0.009947086500061575  0.9989368696454008  1.0000
  Pd  Pd4       1.0  0.003372097809984425  0.005947086464064127  0.9993652167443585  1.0000
  Pd  Pd5       1.0  0.005372098514845831  0.007947086277531896  0.9991510427692728  1.0000
  Pd  Pd6       1.0  0.00462790244875056  0.0020529134033998135  0.9993355814391884  1.0000
  Pd  Pd7       1.0  0.0026279025883387693  5.291339818427431e-05  0.9995497548455031  1.0000
  Pd  Pd8       1.0  0.0006695477907090964  0.00790429431099994  0.99975604244802  1.0000
  Pd  Pd9       1.0  0.006627903007682407  0.004052913421398538  0.9991214080359012  1.0000
  Pd  Pd10      1.0  0.008627902297262506  0.006052913234866306  0.9989072346319358  1.0000
  Pd  Pd11      1.0  0.008040462097693556  0.006444540518361159  0.9994007301593586  1.0000
  Pd  Pd12      1.0  0.006024837433359877  0.0044528847497583065  0.9996094781515454  1.0000
  Pd  Pd13      1.0  0.004092981273970762  0.002544997088395491  0.9998146444673377  1.0000
  Pd  Pd14      1.0  4.0461972888947834e-05  0.008444540740890839  0.9991865567531132  1.0000
  Pd  Pd15      1.0  0.0020404617996969336  0.0004445405154977261  0.9989723832487418  1.0000
  Pd  Pd16      1.0  0.007959538127917297  0.009555459625628633  0.9995142412314534  1.0000
  Pd  Pd17      1.0  0.006020719834267467  0.007637618669842191  0.99973016486627  1.0000
  Pd  Pd18      1.0  0.00395953842533491  0.005555459589631185  0.9988717209190856  1.0000
  Pd  Pd19      1.0  0.009959538625883545  0.001555459451368259  0.9993000680179291  1.0000
  Pd  Pd20      1.0  0.0019595387199732757  0.0035554593671015054  0.9990858943319294  1.0000
  Pd  Pd21      1.0  0.009248281486892218  0.006565805285692504  0.9996768012558388  1.0000
  Pd  Pd22      1.0  0.0070133498162294515  0.004686945066611249  0.9998682440525427  1.0000
  Pd  Pd23      1.0  0.005226502926975116  0.0025501105668166045  0.9990348388268339  1.0000
  Pd  Pd24      1.0  0.0012265026506824536  0.008550110620812776  0.9994631854501294  1.0000
  Pd  Pd25      1.0  0.0032265029662367525  0.0005501107022160971  0.9992490122289239  1.0000
  Pd  Pd26      1.0  0.006773498741482682  0.009449888927582873  0.9992376125624286  1.0000
  Pd  Pd27      1.0  0.004773497744762157  0.007449889523177016  0.9994517859472809  1.0000
  Pd  Pd28      1.0  0.00278420702850893  0.005545055099919491  0.9996530623209858  1.0000
  Pd  Pd29      1.0  0.008773497459343728  0.001449889264649888  0.999023439037747  1.0000
  Pd  Pd30      1.0  0.0006941962173681888  0.003599332075202884  0.9998624489830039  1.0000
  Pd  Pd31      1.0  0.004680530234274949  0.0008186316727880654  0.9996268980379964  1.0000
  Pd  Pd32      1.0  0.0023047398278854877  0.009083749882713769  0.9998152123946737  1.0000
  Pd  Pd33      1.0  0.0007091729968809487  0.006826105696964004  0.9989831510763773  1.0000
  Pd  Pd34      1.0  0.006709172624714919  0.0028261058654975115  0.9994114981642975  1.0000
  Pd  Pd35      1.0  0.008709173183646765  0.004826105883496235  0.9991973247610103  1.0000
  Pd  Pd36      1.0  0.001290827634020067  0.005173894001966429  0.9992893000192494  1.0000
  Pd  Pd37      1.0  0.009290828320535769  0.003173893983967705  0.9995034734227616  1.0000
  Pd  Pd38      1.0  0.00729574371608526  0.001125168351883931  0.999713680386506  1.0000
  Pd  Pd39      1.0  0.0032908283388814728  0.007173893815434197  0.9990751266221072  1.0000
  Pd  Pd40      1.0  0.0052908280442431075  0.009173894037963877  0.9988609529202918  1.0000
