data_image0
_chemical_formula_structural       COCa4Cu36Sn16
_chemical_formula_sum              "C1 O1 Ca4 Cu36 Sn16"
_cell_length_a       8.789674758911133
_cell_length_b       8.86088993111913
_cell_length_c       113.2933349609375
_cell_angle_alpha    89.24901786989668
_cell_angle_beta     90.0
_cell_angle_gamma    119.73449165871575

_space_group_name_H-M_alt    "P 1"
_space_group_IT_number       1

loop_
  _space_group_symop_operation_xyz
  'x, y, z'

loop_
  _atom_site_type_symbol
  _atom_site_label
  _atom_site_symmetry_multiplicity
  _atom_site_fract_x
  _atom_site_fract_y
  _atom_site_fract_z
  _atom_site_occupancy
  C   C1        1.0  0.005660128109637545  0.007998198277781865  0.9999918010227309  1.0000
  O   O1        1.0  0.005660128109637545  0.007998198277781865  9.772044613017721e-05  1.0000
  Ca  Ca1       1.0  0.004775899268067737  0.009572593035535903  0.9988607938830812  1.0000
  Ca  Ca2       1.0  0.001442565521441237  0.002905925742606782  0.9994976852741165  1.0000
  Ca  Ca3       1.0  0.008109232382452945  0.006239259146959569  0.9991792394473198  1.0000
  Ca  Ca4       1.0  0.0046574319272209876  0.009350729553664582  0.9998053830507376  1.0000
  Cu  Cu1       1.0  0.006323059793600124  0.0015636811907105068  0.9991482464612901  1.0000
  Cu  Cu2       1.0  0.0029314854516370777  0.004866303806068361  0.9997749322449471  1.0000
  Cu  Cu3       1.0  0.007946404644368904  0.009940337577104658  0.9993033304614686  1.0000
  Cu  Cu4       1.0  0.004514191495583104  0.0032337906012534835  0.9999312539055822  1.0000
  Cu  Cu5       1.0  0.0018864934111517844  0.00489701471611918  0.9988298006343693  1.0000
  Cu  Cu6       1.0  0.008553160298223478  0.008230348604695514  0.999466691965006  1.0000
  Cu  Cu7       1.0  0.0016053935937641042  0.009204848493967148  0.9993735944626239  1.0000
  Cu  Cu8       1.0  0.008305002037053198  0.0024114073604117547  0.999985507520257  1.0000
  Cu  Cu9       1.0  0.007831201876665006  0.007841537433470784  0.9988812039638674  1.0000
  Cu  Cu10      1.0  0.00449786877508206  0.001174870382653436  0.9995180956177089  1.0000
  Cu  Cu11      1.0  0.0062289238322655646  0.004636981344671901  0.9994772754563849  1.0000
  Cu  Cu12      1.0  0.00956225711075146  0.001303647698207341  0.9988403841254999  1.0000
  Cu  Cu13      1.0  0.002176144583763036  0.0065314222034517375  0.9992962922484737  1.0000
  Cu  Cu14      1.0  0.008943599710285305  0.009931249669565852  0.9999300603012972  1.0000
  Cu  Cu15      1.0  0.007375653377248285  0.002613762686114613  0.9993806324729626  1.0000
  Cu  Cu16      1.0  0.003873080627003871  0.005863118169077785  0.9999842677313402  1.0000
  Cu  Cu17      1.0  0.001001149392545117  0.009864755123580976  0.9989778469482824  1.0000
  Cu  Cu18      1.0  0.0076678164337404525  0.0031980887990989506  0.9996147380752703  1.0000
  Cu  Cu19      1.0  0.0018839814213144354  0.0059470960904674  0.9990621871722749  1.0000
  Cu  Cu20      1.0  0.008550648149451482  0.009280429979043735  0.9996990785029117  1.0000
  Cu  Cu21      1.0  0.0032287377360357412  0.007581503577799957  0.9995286787863794  1.0000
  Cu  Cu22      1.0  0.006562071082599307  0.004248170173447171  0.9988917874552462  1.0000
  Cu  Cu23      1.0  0.000998637829207155  0.0009148368296223267  0.9992102327558718  1.0000
  Cu  Cu24      1.0  0.007771189440749451  0.004319226105249156  0.999840274963313  1.0000
  Cu  Cu25      1.0  0.00505392941294158  0.007970314749024689  0.9991588296295882  1.0000
  Cu  Cu26      1.0  0.0017469928458838059  0.0013050133296670767  0.9997977995924501  1.0000
  Cu  Cu27      1.0  0.008639804692304647  0.003273670284175537  0.9989848849576285  1.0000
  Cu  Cu28      1.0  0.005306471080850003  0.006607003688528324  0.9996217762887616  1.0000
  Cu  Cu29      1.0  0.0014116349466039894  0.0028643737936635606  0.9999863789737822  1.0000
  Cu  Cu30      1.0  0.004775899268067737  0.009572593035535903  0.9993384627251007  1.0000
  Cu  Cu31      1.0  0.003322873947031801  0.004508204029117996  0.999199649790664  1.0000
  Cu  Cu32      1.0  0.00022492098358013903  0.007946952899753732  0.9998388941980522  1.0000
  Cu  Cu33      1.0  0.00424532645633559  0.0025381812010380265  0.9990551489587837  1.0000
  Cu  Cu34      1.0  0.0009119934806195358  0.005871514605390813  0.9996920402899169  1.0000
  Cu  Cu35      1.0  0.001442565521441237  0.002905925742606782  0.9990200166951516  1.0000
  Cu  Cu36      1.0  0.008109232382452945  0.006239259146959569  0.9996569085523938  1.0000
  Sn  Sn1       1.0  0.005171427484582443  0.006645872312683273  0.9993762487172864  1.0000
  Sn  Sn2       1.0  0.001978766767390989  0.00015140431019562662  2.653325305721782e-05  1.0000
  Sn  Sn3       1.0  0.00019222209079943303  0.006687461304727875  0.9989005667077877  1.0000
  Sn  Sn4       1.0  0.006858888306160605  2.0794600054703897e-05  0.9995374583612744  1.0000
  Sn  Sn5       1.0  0.009807778239893058  0.003354127900375088  0.9992190125345844  1.0000
  Sn  Sn6       1.0  0.006696806923070566  0.006713632134797671  0.999872420009764  1.0000
  Sn  Sn7       1.0  0.008120316592480732  0.009979205232812512  0.9990578028909861  1.0000
  Sn  Sn8       1.0  0.004786983642152582  0.0033125389083304858  0.9996946945440831  1.0000
  Sn  Sn9       1.0  0.002692909040929415  0.009124389909320503  0.9991394668866607  1.0000
  Sn  Sn10      1.0  0.009430167256743095  0.002490235322262315  0.9997687618686886  1.0000
  Sn  Sn11      1.0  0.004764814106945875  0.005832645981235865  0.9989822307034623  1.0000
  Sn  Sn12      1.0  0.001431481161428731  0.0091659798698122  0.9996191220340991  1.0000
  Sn  Sn13      1.0  0.009744019500728885  0.005791056989191263  0.9994579127129609  1.0000
  Sn  Sn14      1.0  0.003077353120660044  0.0024577235848384756  0.9988210211187732  1.0000
  Sn  Sn15      1.0  0.004380370476428878  0.002499312576883078  0.9993006765302589  1.0000
  Sn  Sn16      1.0  0.0009156289288063045  0.005835882047203568  0.9999654493740634  1.0000
