data_image0
_chemical_formula_structural       In2Sb2CO
_chemical_formula_sum              "In2 Sb2 C1 O1"
_cell_length_a       4.7402143478393555
_cell_length_b       4.74021424965938
_cell_length_c       38.75481033325195
_cell_angle_alpha    90.0
_cell_angle_beta     90.0
_cell_angle_gamma    120.00000068515203

_space_group_name_H-M_alt    "P 1"
_space_group_IT_number       1

loop_
  _space_group_symop_operation_xyz
  'x, y, z'

loop_
  _atom_site_type_symbol
  _atom_site_label
  _atom_site_symmetry_multiplicity
  _atom_site_fract_x
  _atom_site_fract_y
  _atom_site_fract_z
  _atom_site_occupancy
  In  In1       1.0  0.005000010810505465  0.0016666686404104836  0.9997804798866875  1.0000
  In  In2       1.0  0.00166667120095355  0.005000000816721579  0.9987121742505247  1.0000
  Sb  Sb1       1.0  0.005000004515235804  0.0016666670523407458  0.9989657566894595  1.0000
  Sb  Sb2       1.0  0.0016666632579164348  0.004999998094316315  0.0  1.0000
  C   C1        1.0  0.008333337262786756  0.008333333333333333  0.0004063048048588978  1.0000
  O   O1        1.0  0.008333337262786756  0.008333333333333333  0.0007159440293666685  1.0000
