data_image0
_chemical_formula_structural       HAl6Fe3Ni3Al6Fe3Ni3Al6Fe3Ni3Al6Fe3Ni3
_chemical_formula_sum              "H1 Al24 Fe12 Ni12"
_cell_length_a       8.19063663482666
_cell_length_b       8.190636626130141
_cell_length_c       39.905677795410156
_cell_angle_alpha    90.0
_cell_angle_beta     90.0
_cell_angle_gamma    120.00000003512285

_space_group_name_H-M_alt    "P 1"
_space_group_IT_number       1

loop_
  _space_group_symop_operation_xyz
  'x, y, z'

loop_
  _atom_site_type_symbol
  _atom_site_label
  _atom_site_symmetry_multiplicity
  _atom_site_fract_x
  _atom_site_fract_y
  _atom_site_fract_z
  _atom_site_occupancy
  H   H1        1.0  0.0024999996257365556  0.004999995651473034  0.00014116748043262263  1.0000
  Al  Al1       1.0  0.003333333477422917  0.0016666707753594159  0.99814706414299  1.0000
  Al  Al2       1.0  0.0016666669246217286  0.003333337349243502  0.9989849933064695  1.0000
  Al  Al3       1.0  0.009999999389573662  0.009999995504421396  0.9998324268632288  1.0000
  Al  Al4       1.0  2.4999989893323705e-10  4.0999998751960524e-09  0.998566028538025  1.0000
  Al  Al5       1.0  0.00333333180575425  0.0016666678868451268  0.9994076462410408  1.0000
  Al  Al6       1.0  0.0016666669246217286  0.003333337349243502  0.9977280993745455  1.0000
  Fe  Fe1       1.0  2.4999989893323705e-10  4.0999998751960524e-09  0.9991944756906918  1.0000
  Fe  Fe2       1.0  0.0033333331890766614  0.0016666715631360402  0.0  1.0000
  Fe  Fe3       1.0  0.0016666669246217286  0.003333337349243502  0.9983565465272123  1.0000
  Ni  Ni1       1.0  0.0016666756055493872  0.0033333355110980456  0.9996198044780994  1.0000
  Ni  Ni2       1.0  2.4999989893323705e-10  4.0999998751960524e-09  0.9979375817587678  1.0000
  Ni  Ni3       1.0  0.003333333477422917  0.0016666707753594159  0.9987755109222473  1.0000
  Al  Al7       1.0  0.0033333336610980994  0.006666671022196091  0.99814706414299  1.0000
  Al  Al8       1.0  0.0016666670040644644  0.008333337464784074  0.9989849933064695  1.0000
  Al  Al9       1.0  0.009999999372134872  0.004999995651473034  0.9998324268632288  1.0000
  Al  Al10      1.0  2.9888427342412795e-10  0.005000004054423693  0.998566028538025  1.0000
  Al  Al11      1.0  0.00333333183554477  0.006666667871089594  0.9994076462410408  1.0000
  Al  Al12      1.0  0.0016666670040644644  0.008333337464784074  0.9977280993745455  1.0000
  Fe  Fe4       1.0  2.9888427342412795e-10  0.005000004054423693  0.9991944756906918  1.0000
  Fe  Fe5       1.0  0.0033333332236902984  0.006666671547380507  0.0  1.0000
  Fe  Fe6       1.0  0.0016666670040644644  0.008333337464784074  0.9983565465272123  1.0000
  Ni  Ni4       1.0  0.0016666755049795858  0.008333335364046408  0.9996198044780994  1.0000
  Ni  Ni5       1.0  2.9888427342412795e-10  0.005000004054423693  0.9979375817587678  1.0000
  Ni  Ni6       1.0  0.0033333336610980994  0.006666671022196091  0.9987755109222473  1.0000
  Al  Al13      1.0  0.008333333295493699  0.0016666707753594159  0.99814706414299  1.0000
  Al  Al14      1.0  0.006666667128223397  0.003333337349243502  0.9989849933064695  1.0000
  Al  Al15      1.0  0.004999999552210737  0.009999995504421396  0.9998324268632288  1.0000
  Al  Al16      1.0  0.005000000048778538  4.0999998751960524e-09  0.998566028538025  1.0000
  Al  Al17      1.0  0.008333331851236555  0.0016666678868451268  0.9994076462410408  1.0000
  Al  Al18      1.0  0.006666667128223397  0.003333337349243502  0.9977280993745455  1.0000
  Fe  Fe7       1.0  0.005000000048778538  4.0999998751960524e-09  0.9991944756906918  1.0000
  Fe  Fe8       1.0  0.008333333234558966  0.0016666715631360402  0.0  1.0000
  Fe  Fe9       1.0  0.006666667128223397  0.003333337349243502  0.9983565465272123  1.0000
  Ni  Ni7       1.0  0.006666675760434624  0.0033333355110980456  0.9996198044780994  1.0000
  Ni  Ni8       1.0  0.005000000048778538  4.0999998751960524e-09  0.9979375817587678  1.0000
  Ni  Ni9       1.0  0.008333333295493699  0.0016666707753594159  0.9987755109222473  1.0000
  Al  Al19      1.0  0.008333333509876646  0.006666671022196091  0.99814706414299  1.0000
  Al  Al20      1.0  0.006666667049546769  0.008333337464784074  0.9989849933064695  1.0000
  Al  Al21      1.0  0.00499999955406409  0.004999995651473034  0.9998324268632288  1.0000
  Al  Al22      1.0  0.005000000116955056  0.005000004054423693  0.998566028538025  1.0000
  Al  Al23      1.0  0.008333331934323398  0.006666667871089594  0.9994076462410408  1.0000
  Al  Al24      1.0  0.006666667049546769  0.008333337464784074  0.9977280993745455  1.0000
  Fe  Fe10      1.0  0.005000000116955056  0.005000004054423693  0.9991944756906918  1.0000
  Fe  Fe11      1.0  0.008333333317645809  0.006666671547380507  0.0  1.0000
  Fe  Fe12      1.0  0.006666667049546769  0.008333337464784074  0.9983565465272123  1.0000
  Ni  Ni10      1.0  0.006666675550461891  0.008333335364046408  0.9996198044780994  1.0000
  Ni  Ni11      1.0  0.005000000116955056  0.005000004054423693  0.9979375817587678  1.0000
  Ni  Ni12      1.0  0.008333333509876646  0.006666671022196091  0.9987755109222473  1.0000
