data_image0
_chemical_formula_structural       COZn12
_chemical_formula_sum              "C1 O1 Zn12"
_cell_length_a       4.6153178215026855
_cell_length_b       5.916443063914785
_cell_length_c       99.31120300292969
_cell_angle_alpha    103.01408758689931
_cell_angle_beta     90.0
_cell_angle_gamma    67.04291218711795

_space_group_name_H-M_alt    "P 1"
_space_group_IT_number       1

loop_
  _space_group_symop_operation_xyz
  'x, y, z'

loop_
  _atom_site_type_symbol
  _atom_site_label
  _atom_site_symmetry_multiplicity
  _atom_site_fract_x
  _atom_site_fract_y
  _atom_site_fract_z
  _atom_site_occupancy
  C   C1        1.0  0.005479991729594314  0.002632610674537472  0.00020442871785972638  1.0000
  O   O1        1.0  0.005479991729594314  0.002632610674537472  0.0003252606517322452  1.0000
  Zn  Zn1       1.0  0.0006134729548662829  0.0031692788080152894  0.9993797678481997  1.0000
  Zn  Zn2       1.0  0.005613472979081021  0.0031692788080152894  0.9995139246888398  1.0000
  Zn  Zn3       1.0  0.004780139423820796  0.008169278864433274  0.9994468462572731  1.0000
  Zn  Zn4       1.0  0.009780139649825012  0.008169278864433274  0.999312689416633  1.0000
  Zn  Zn5       1.0  0.0006134729548662829  0.0031692788080152894  0.9996480815294798  1.0000
  Zn  Zn6       1.0  0.005434862273444509  0.0032090869845021156  0.9997866690956629  1.0000
  Zn  Zn7       1.0  0.004780139423820796  0.008169278864433274  0.9997151599385531  1.0000
  Zn  Zn8       1.0  0.009780139649825012  0.008169278864433274  0.9995810030979131  1.0000
  Zn  Zn9       1.0  0.00045424271615761844  0.0028427091291089897  0.9999320405778338  1.0000
  Zn  Zn10      1.0  0.0058809363545086046  0.0018307214247088924  2.45603758480382e-05  1.0000
  Zn  Zn11      1.0  0.005363806784264639  0.0074445362703542545  0.9999826660847367  1.0000
  Zn  Zn12      1.0  0.0002198602474035044  0.007706996960560129  0.9998618066728875  1.0000
