data_image0
_chemical_formula_structural       COCa6Zn6Ge6Ca6Zn6Ge6
_chemical_formula_sum              "C1 O1 Ca12 Zn12 Ge12"
_cell_length_a       8.342061042785645
_cell_length_b       11.569397511134726
_cell_length_c       100.60974884033203
_cell_angle_alpha    79.10660510452263
_cell_angle_beta     90.0
_cell_angle_gamma    90.0

_space_group_name_H-M_alt    "P 1"
_space_group_IT_number       1

loop_
  _space_group_symop_operation_xyz
  'x, y, z'

loop_
  _atom_site_type_symbol
  _atom_site_label
  _atom_site_symmetry_multiplicity
  _atom_site_fract_x
  _atom_site_fract_y
  _atom_site_fract_z
  _atom_site_occupancy
  C   C1        1.0  0.007519264370316046  0.009668608252675633  0.9999249197816009  1.0000
  O   O1        1.0  0.007519264370316046  0.009668608252675633  4.419216675610394e-05  1.0000
  Ca  Ca1       1.0  1.926544870590114e-05  0.0067099403647306495  0.9991867549133581  1.0000
  Ca  Ca2       1.0  1.926544870590114e-05  0.0033766069177239826  0.999041877497803  1.0000
  Ca  Ca3       1.0  1.926544870590114e-05  4.327355269327734e-05  0.999331632239753  1.0000
  Ca  Ca4       1.0  0.00501926544207717  0.0067099403647306495  0.9991867549133581  1.0000
  Ca  Ca5       1.0  0.00501926544207717  0.0033766069177239826  0.999041877497803  1.0000
  Ca  Ca6       1.0  0.00501926544207717  4.327355269327734e-05  0.999331632239753  1.0000
  Zn  Zn1       1.0  0.007519265263450316  0.005598828997125862  0.9989935850598282  1.0000
  Zn  Zn2       1.0  0.007519265263450316  0.0022654958780230425  0.9992833397964337  1.0000
  Zn  Zn3       1.0  0.007519265263450316  0.00893216244413253  0.9991384621791661  1.0000
  Zn  Zn4       1.0  0.002519265397420457  0.007821051732335436  0.9993799247668879  1.0000
  Zn  Zn5       1.0  0.002519265397420457  0.004487717957424923  0.9992350470622418  1.0000
  Zn  Zn6       1.0  0.002519265397420457  0.0011543846743701791  0.999090169939341  1.0000
  Ge  Ge1       1.0  0.002519265397420457  0.005598828997125862  0.9989935850598282  1.0000
  Ge  Ge2       1.0  0.002519265397420457  0.0022654958780230425  0.9992833397964337  1.0000
  Ge  Ge3       1.0  0.002519265397420457  0.00893216244413253  0.9991384621791661  1.0000
  Ge  Ge4       1.0  0.007519265263450316  0.007821051732335436  0.9993799247668879  1.0000
  Ge  Ge5       1.0  0.007519265263450316  0.004487717957424923  0.9992350470622418  1.0000
  Ge  Ge6       1.0  0.007519265263450316  0.0011543846743701791  0.999090169939341  1.0000
  Ca  Ca7       1.0  0.009980734379295976  0.006713153822433383  0.9996239002516946  1.0000
  Ca  Ca8       1.0  1.926544870590114e-05  0.0033766069177239826  0.9994765096570895  1.0000
  Ca  Ca9       1.0  3.076275045963369e-05  0.009956726870302685  0.9997496056592379  1.0000
  Ca  Ca10      1.0  0.005057798380440331  0.0067131584130872436  0.9996239001519323  1.0000
  Ca  Ca11      1.0  0.00501926544207717  0.0033766069177239826  0.9994765096570895  1.0000
  Ca  Ca12      1.0  0.005007767231489542  0.009956722935456519  0.9997496051523144  1.0000
  Zn  Zn7       1.0  0.007519265263450316  0.005598828997125862  0.9994282172191146  1.0000
  Zn  Zn8       1.0  0.007519261690913237  0.0024558750482464604  0.9997128163178358  1.0000
  Zn  Zn9       1.0  0.007519266156584586  0.008919294841360014  0.999571602890324  1.0000
  Zn  Zn10      1.0  0.0025192566893613277  0.007254476511843446  0.999842348629223  1.0000
  Zn  Zn11      1.0  0.0025192651741368895  0.004254987873958336  0.9996683257927766  1.0000
  Zn  Zn12      1.0  0.00251926338786835  0.0011362287203256986  0.9995274627169164  1.0000
  Ge  Ge7       1.0  0.002519265397420457  0.005598828997125862  0.9994282172191146  1.0000
  Ge  Ge8       1.0  0.002519265397420457  0.002058986133843446  0.9997349571396454  1.0000
  Ge  Ge9       1.0  0.002519267183688996  0.008903198041500098  0.9995749658192858  1.0000
  Ge  Ge10      1.0  0.007519261690913237  0.007868637138643664  0.9998081204127841  1.0000
  Ge  Ge11      1.0  0.007519267942853125  0.004627900459052795  0.9996735071406255  1.0000
  Ge  Ge12      1.0  0.007519266156584586  0.0011635372905056422  0.9995312556400199  1.0000
