data_image0
_chemical_formula_structural       COCa12In4Au12
_chemical_formula_sum              "C1 O1 Ca12 In4 Au12"
_cell_length_a       19.32196047727666
_cell_length_b       4.690242767333984
_cell_length_c       106.67298126220703
_cell_angle_alpha    90.0
_cell_angle_beta     61.673287125963945
_cell_angle_gamma    90.0

_space_group_name_H-M_alt    "P 1"
_space_group_IT_number       1

loop_
  _space_group_symop_operation_xyz
  'x, y, z'

loop_
  _atom_site_type_symbol
  _atom_site_label
  _atom_site_symmetry_multiplicity
  _atom_site_fract_x
  _atom_site_fract_y
  _atom_site_fract_z
  _atom_site_occupancy
  C   C1        1.0  0.007127114216878887  0.007499999269277254  0.9994626670375302  1.0000
  O   O1        1.0  0.007127114216878887  0.007499999269277254  0.9995751606059736  1.0000
  Ca  Ca1       1.0  0.0017032475637417316  0.002500001278764806  0.9993402444286303  1.0000
  Ca  Ca2       1.0  0.006541430898983821  0.0024999983002753517  0.999302373417493  1.0000
  Ca  Ca3       1.0  0.008446786966475595  0.007500000063541109  0.9987256095055035  1.0000
  Ca  Ca4       1.0  0.004445269820185293  0.0025000002859349875  0.9993134801786063  1.0000
  Ca  Ca5       1.0  0.0005787192100816565  0.007500001652068817  0.9992026554024899  1.0000
  Ca  Ca6       1.0  0.009445181858502103  0.002500000087369024  0.9988761011759818  1.0000
  Ca  Ca7       1.0  0.006335861203753181  0.007500000063541109  0.999041024518836  1.0000
  Ca  Ca8       1.0  0.005554817966275421  0.007500000063541109  0.9987807311010098  1.0000
  Ca  Ca9       1.0  0.0036641387524411996  0.002500000087369024  0.9990463656978844  1.0000
  Ca  Ca10      1.0  0.008679216077068733  0.0024999992931051696  0.9992540456550238  1.0000
  Ca  Ca11      1.0  0.0013358612256559909  0.007500000063541109  0.9988167386691529  1.0000
  Ca  Ca12      1.0  0.0034467868788643566  0.007500000063541109  0.9987692968035697  1.0000
  In  In1       1.0  0.002069863908557417  0.002500000087369024  0.9989829064647033  1.0000
  In  In2       1.0  0.007917093800656819  0.0074999984750134  0.9991083225075735  1.0000
  In  In3       1.0  0.0029471080090969905  0.007500002446332672  0.9993294812222567  1.0000
  In  In4       1.0  0.007069863777140559  0.002500000087369024  0.998748685777701  1.0000
  Au  Au1       1.0  0.007617853235896553  0.002500000087369024  0.9989683175128148  1.0000
  Au  Au2       1.0  0.00952464525158303  0.007500000063541109  0.99905573715118  1.0000
  Au  Au3       1.0  0.0026178529292572193  0.002500000087369024  0.9986690784448686  1.0000
  Au  Au4       1.0  0.0002978483948061675  0.007500000063541109  0.9986617785559663  1.0000
  Au  Au5       1.0  0.00453190944979021  0.007500000857804963  0.9991157031670721  1.0000
  Au  Au6       1.0  0.0023668671013212057  0.007500001652068817  0.9991135444812657  1.0000
  Au  Au7       1.0  0.0004753550879105182  0.002500000087369024  0.999031653032597  1.0000
  Au  Au8       1.0  0.004702151665426558  0.002500000087369024  0.9987129769789177  1.0000
  Au  Au9       1.0  0.005475355011250685  0.002500000087369024  0.998974026351291  1.0000
  Au  Au10      1.0  0.007382147464993352  0.007500000063541109  0.9985588397948488  1.0000
  Au  Au11      1.0  0.0054046146311048215  0.0074999984750134  0.9993596270144056  1.0000
  Au  Au12      1.0  0.009702151753037796  0.002500000087369024  0.9985661397049291  1.0000
