data_image0
_chemical_formula_structural       COAg6Pd2Ag6Pd2Ag6Pd2Ag6Pd2
_chemical_formula_sum              "C1 O1 Ag24 Pd8"
_cell_length_a       8.306559562683105
_cell_length_b       8.306559562683105
_cell_length_c       103.02263641357422
_cell_angle_alpha    90.0
_cell_angle_beta     90.0
_cell_angle_gamma    90.0

_space_group_name_H-M_alt    "P 1"
_space_group_IT_number       1

loop_
  _space_group_symop_operation_xyz
  'x, y, z'

loop_
  _atom_site_type_symbol
  _atom_site_label
  _atom_site_symmetry_multiplicity
  _atom_site_fract_x
  _atom_site_fract_y
  _atom_site_fract_z
  _atom_site_occupancy
  C   C1        1.0  0.003749999937213399  0.0037500001614512598  0.00016812337878589388  1.0000
  O   O1        1.0  0.003749999937213399  0.0037500001614512598  0.00028460287044365103  1.0000
  Ag  Ag1       1.0  0.003749999937213399  0.0037500001614512598  0.0  1.0000
  Ag  Ag2       1.0  0.0012500000538170867  0.0012500000538170867  0.0  1.0000
  Ag  Ag3       1.0  0.0012500000538170867  0.0037500001614512598  0.9994018440485433  1.0000
  Ag  Ag4       1.0  0.0012500000538170867  0.001249999941698156  0.9996021801305273  1.0000
  Ag  Ag5       1.0  0.0037500001614512598  0.0037500001614512598  0.9996021801305273  1.0000
  Ag  Ag6       1.0  0.003749999937213399  0.001249999941698156  0.9998011933379953  1.0000
  Pd  Pd1       1.0  0.0037500001614512598  0.001249999941698156  0.9994018440485433  1.0000
  Pd  Pd2       1.0  0.0012500001659360171  0.0037500001614512598  0.9998058200720886  1.0000
  Ag  Ag7       1.0  0.003749999937213399  0.008749999928243884  0.0  1.0000
  Ag  Ag8       1.0  0.0012500000538170867  0.006250000269085433  0.0  1.0000
  Ag  Ag9       1.0  0.0012500000538170867  0.008749999928243884  0.9994018440485433  1.0000
  Ag  Ag10      1.0  0.0012500000538170867  0.006250000269085433  0.9996021801305273  1.0000
  Ag  Ag11      1.0  0.0037500001614512598  0.008749999928243884  0.9996021801305273  1.0000
  Ag  Ag12      1.0  0.003749999937213399  0.006250000269085433  0.9998011933379953  1.0000
  Pd  Pd3       1.0  0.0037500001614512598  0.006250000269085433  0.9994018440485433  1.0000
  Pd  Pd4       1.0  0.0012500001659360171  0.008749999928243884  0.9998058200720886  1.0000
  Ag  Ag13      1.0  0.008749999928243884  0.0037500001614512598  0.0  1.0000
  Ag  Ag14      1.0  0.006250000269085433  0.0012500000538170867  0.0  1.0000
  Ag  Ag15      1.0  0.006250000269085433  0.0037500001614512598  0.9994018440485433  1.0000
  Ag  Ag16      1.0  0.006250000269085433  0.001249999941698156  0.9996021801305273  1.0000
  Ag  Ag17      1.0  0.008749999928243884  0.0037500001614512598  0.9996021801305273  1.0000
  Ag  Ag18      1.0  0.008749999928243884  0.001249999941698156  0.9998011933379953  1.0000
  Pd  Pd5       1.0  0.008749999928243884  0.001249999941698156  0.9994018440485433  1.0000
  Pd  Pd6       1.0  0.006250000269085433  0.0037500001614512598  0.9998058200720886  1.0000
  Ag  Ag19      1.0  0.008749999928243884  0.008749999928243884  0.0  1.0000
  Ag  Ag20      1.0  0.006250000269085433  0.006250000269085433  0.0  1.0000
  Ag  Ag21      1.0  0.006250000269085433  0.008749999928243884  0.9994018440485433  1.0000
  Ag  Ag22      1.0  0.006250000269085433  0.006250000269085433  0.9996021801305273  1.0000
  Ag  Ag23      1.0  0.008749999928243884  0.008749999928243884  0.9996021801305273  1.0000
  Ag  Ag24      1.0  0.008749999928243884  0.006250000269085433  0.9998011933379953  1.0000
  Pd  Pd7       1.0  0.008749999928243884  0.006250000269085433  0.9994018440485433  1.0000
  Pd  Pd8       1.0  0.006250000269085433  0.008749999928243884  0.9998058200720886  1.0000
