data_image0
_chemical_formula_structural       HNb4Pt8
_chemical_formula_sum              "H1 Nb4 Pt8"
_cell_length_a       4.92778774675181
_cell_length_b       4.960446555848331
_cell_length_c       102.52655029296875
_cell_angle_alpha    91.54326298937568
_cell_angle_beta     93.10813072513783
_cell_angle_gamma    60.21755389621171

_space_group_name_H-M_alt    "P 1"
_space_group_IT_number       1

loop_
  _space_group_symop_operation_xyz
  'x, y, z'

loop_
  _atom_site_type_symbol
  _atom_site_label
  _atom_site_symmetry_multiplicity
  _atom_site_fract_x
  _atom_site_fract_y
  _atom_site_fract_z
  _atom_site_occupancy
  H   H1        1.0  0.0006524306261789036  0.0016083527285391066  0.0001399651521836873  1.0000
  Nb  Nb1       1.0  0.005389584211426154  0.0016081994643547196  1.61409206342957e-05  1.0000
  Nb  Nb2       1.0  0.00934756892284348  0.0016081719914522255  0.9997936018063334  1.0000
  Nb  Nb3       1.0  0.005562798756603281  0.0016081443022276645  0.9995653749078899  1.0000
  Nb  Nb4       1.0  0.001991370250068129  0.0016081443022276645  0.9993387676148294  1.0000
  Pt  Pt1       1.0  0.00885332405682337  0.004824849975627945  1.954554420666752e-05  1.0000
  Pt  Pt2       1.0  0.002587292908962233  0.0048387404481866495  0.999793490049387  1.0000
  Pt  Pt3       1.0  0.0058178585354229624  0.0083775531403291  0.9997934849092961  1.0000
  Pt  Pt4       1.0  0.0020698198005477675  0.008391855490103151  1.954828088534301e-05  1.0000
  Pt  Pt5       1.0  0.008918465109475842  0.004896810809109046  0.999565374781394  1.0000
  Pt  Pt6       1.0  0.005347036602940691  0.004896810809109046  0.9993387677790126  1.0000
  Pt  Pt7       1.0  0.008635702819969917  0.008319477587677098  0.9993387676524972  1.0000
  Pt  Pt8       1.0  0.0022071321138785642  0.008319477587677098  0.9995653749069145  1.0000
