data_image0
_chemical_formula_structural       HNb12
_chemical_formula_sum              "H1 Nb12"
_cell_length_a       4.723337173461914
_cell_length_b       5.688741560877508
_cell_length_c       100.9287109375
_cell_angle_alpha    98.02196159986737
_cell_angle_beta     90.0
_cell_angle_gamma    90.0

_space_group_name_H-M_alt    "P 1"
_space_group_IT_number       1

loop_
  _space_group_symop_operation_xyz
  'x, y, z'

loop_
  _atom_site_type_symbol
  _atom_site_label
  _atom_site_symmetry_multiplicity
  _atom_site_fract_x
  _atom_site_fract_y
  _atom_site_fract_z
  _atom_site_occupancy
  H   H1        1.0  0.005000000126191805  0.007995475905993314  0.0002148974103558773  1.0000
  Nb  Nb1       1.0  0.0025000000630959027  0.003749999867735113  0.9994723306663141  1.0000
  Nb  Nb2       1.0  0.0025000000630959027  0.008750000132264887  0.9993330392184376  1.0000
  Nb  Nb3       1.0  0.0075000001892877085  0.00625  0.9994026849423759  1.0000
  Nb  Nb4       1.0  0.0075000001892877085  0.0012499999834668892  0.9995419763922031  1.0000
  Nb  Nb5       1.0  0.0025000000630959027  0.003749999867735113  0.9997509134481163  1.0000
  Nb  Nb6       1.0  0.0025000000630959027  0.008750000132264887  0.9996116220002398  1.0000
  Nb  Nb7       1.0  0.0075000001892877085  0.00625  0.999681267724178  1.0000
  Nb  Nb8       1.0  0.0075000001892877085  0.0012499999834668892  0.9998205594692862  1.0000
  Nb  Nb9       1.0  0.0025000000630959027  0.003749999867735113  2.9496525199331033e-05  1.0000
  Nb  Nb10      1.0  0.0025000000630959027  0.008750000132264887  0.9998902050773228  1.0000
  Nb  Nb11      1.0  0.0075000001892877085  0.00625  0.999959850801261  1.0000
  Nb  Nb12      1.0  0.0075000001892877085  0.0012499999834668892  9.914225108826974e-05  1.0000
