data_image0
_chemical_formula_structural       HAl32Cu16
_chemical_formula_sum              "H1 Al32 Cu16"
_cell_length_a       13.722413309890698
_cell_length_b       7.830583427592729
_cell_length_c       101.32233428955078
_cell_angle_alpha    103.20171455712826
_cell_angle_beta     110.51683052659743
_cell_angle_gamma    69.48316952181891

_space_group_name_H-M_alt    "P 1"
_space_group_IT_number       1

loop_
  _space_group_symop_operation_xyz
  'x, y, z'

loop_
  _atom_site_type_symbol
  _atom_site_label
  _atom_site_symmetry_multiplicity
  _atom_site_fract_x
  _atom_site_fract_y
  _atom_site_fract_z
  _atom_site_occupancy
  H   H1        1.0  0.0028360326846277864  0.005541739181014806  0.0002893797367370685  1.0000
  Al  Al1       1.0  0.009558280103491485  0.0048628125955805825  0.00020085414326304714  1.0000
  Al  Al2       1.0  0.00456590165823837  0.007121633516782558  3.0972936030901925e-05  1.0000
  Al  Al3       1.0  0.004605971454850413  0.002139929267503158  0.9996408439259299  1.0000
  Al  Al4       1.0  0.009605971412290247  0.00963992911400115  0.9998340536910768  1.0000
  Al  Al5       1.0  0.009605972039805802  0.003716042337163433  0.9999054553412352  1.0000
  Al  Al6       1.0  0.004605971608219304  0.006216042285996097  0.9997122456205615  1.0000
  Al  Al7       1.0  0.004543874987605181  0.0012773124586158587  8.65392349175223e-05  1.0000
  Al  Al8       1.0  0.00960597117799979  0.008716042490665439  0.999519035892703  1.0000
  Al  Al9       1.0  0.006182084491128553  0.003851872681505685  0.9998949578774177  1.0000
  Al  Al10      1.0  0.0011820847841944422  0.006351872630338349  0.9997017481911411  1.0000
  Al  Al11      1.0  0.0011800632274101275  0.0014539033421603125  9.370505917920636e-05  1.0000
  Al  Al12      1.0  0.006182084878787901  0.008851872323334335  0.9995085384791628  1.0000
  Al  Al13      1.0  0.006123864090183066  0.007922550193928296  0.9999665814261907  1.0000
  Al  Al14      1.0  0.0011820846814312646  0.00042798588548021647  0.999773149513066  1.0000
  Al  Al15      1.0  0.0012446306431854789  0.00543611803166382  0.0001550268576618266  1.0000
  Al  Al16      1.0  0.006182084881570776  0.002927985802333296  0.9995799398100487  1.0000
  Al  Al17      1.0  0.007105971700925899  0.005889929318670494  0.9997374488234516  1.0000
  Al  Al18      1.0  0.0021059718040505413  0.008389929523339836  0.9995442391326748  1.0000
  Al  Al19      1.0  0.002100271018222625  0.0033634275041539686  0.9999204523081403  1.0000
  Al  Al20      1.0  0.007139221072994447  0.0009382860709863686  0.00011495641866676509  1.0000
  Al  Al21      1.0  0.0070995474808606155  0.004960566767069259  0.0001828194417945589  1.0000
  Al  Al22      1.0  0.002057035919648124  0.007648932354653656  3.4207327988456776e-06  1.0000
  Al  Al23      1.0  0.0021059716069940027  0.0024660424906654405  0.9996156407391775  1.0000
  Al  Al24      1.0  0.007105971899305561  0.009966042081326754  0.9998088505157043  1.0000
  Al  Al25      1.0  0.008721829117717992  0.00770981739073768  1.9328564814720114e-06  1.0000
  Al  Al26      1.0  0.0036820847952366577  0.00010187279823116975  0.9997983530089747  1.0000
  Al  Al27      1.0  0.003590335545065056  0.005074868966593378  0.0001547120715861849  1.0000
  Al  Al28      1.0  0.00868208439455546  0.002601872835007692  0.999605143279555  1.0000
  Al  Al29      1.0  0.008780414862666586  0.00174867222298905  6.64516689671858e-05  1.0000
  Al  Al30      1.0  0.0036820846432721425  0.004177985904667967  0.9998697543965316  1.0000
  Al  Al31      1.0  0.0036820846060382248  0.009177986314006651  0.999483334991655  1.0000
  Al  Al32      1.0  0.008682085082635493  0.0066779861093373095  0.9996765447099495  1.0000
  Cu  Cu1       1.0  0.007779615373469519  0.007698194730435739  0.0001863950829461851  1.0000
  Cu  Cu2       1.0  0.0029131867832948802  5.5455498203709275e-05  2.6350229706140805e-06  1.0000
  Cu  Cu3       1.0  0.00289402830543506  0.00503395761166923  0.9996103918229134  1.0000
  Cu  Cu4       1.0  0.007894028447160603  0.0025339576628365663  0.9998036015298283  1.0000
  Cu  Cu5       1.0  0.007867014785019867  0.00513816756590189  0.9999893303864881  1.0000
  Cu  Cu6       1.0  0.0028940281418876235  0.007533957816338573  0.9998036017062928  1.0000
  Cu  Cu7       1.0  0.00286403020398072  0.0027369325992744552  0.00018117265404867563  1.0000
  Cu  Cu8       1.0  0.00789402829623182  3.395759807790722e-05  0.999610391928125  1.0000
  Cu  Cu9       1.0  0.005394028216638822  0.008783957918673244  0.9997069967090555  1.0000
  Cu  Cu10      1.0  0.00039402827675528984  0.001283957560501895  0.9995137872298445  1.0000
  Cu  Cu11      1.0  0.00039402821206690363  0.006283957714003902  0.9999002064162757  1.0000
  Cu  Cu12      1.0  0.005422154905100375  0.003889350708205046  0.0001029296891082531  1.0000
  Cu  Cu13      1.0  0.005394028372409406  0.001283957560501895  0.9999002065270656  1.0000
  Cu  Cu14      1.0  0.0003940283031491012  0.003783957509334559  0.9997069968235905  1.0000
  Cu  Cu15      1.0  0.00040932729032990684  0.008926923547977441  9.387424146829382e-05  1.0000
  Cu  Cu16      1.0  0.005394028090325303  0.006283957714003902  0.9995137871060511  1.0000
