data_image0
_chemical_formula_structural       COAl10W2
_chemical_formula_sum              "C1 O1 Al10 W2"
_cell_length_a       4.935080051422119
_cell_length_b       4.935080143371215
_cell_length_c       105.64364624023438
_cell_angle_alpha    90.0
_cell_angle_beta     90.0
_cell_angle_gamma    119.99999938366724

_space_group_name_H-M_alt    "P 1"
_space_group_IT_number       1

loop_
  _space_group_symop_operation_xyz
  'x, y, z'

loop_
  _atom_site_type_symbol
  _atom_site_label
  _atom_site_symmetry_multiplicity
  _atom_site_fract_x
  _atom_site_fract_y
  _atom_site_fract_z
  _atom_site_occupancy
  C   C1        1.0  0.008336875231122436  0.003336873457761707  0.00016395225213917548  1.0000
  O   O1        1.0  0.008336875231122436  0.003336873457761707  0.00027754133336761294  1.0000
  Al  Al1       1.0  8.541030035509119e-05  0.009999999267825561  0.9997800385802291  1.0000
  Al  Al2       1.0  8.540915311968813e-05  6.999999871884422e-10  0.9993570131081098  1.0000
  Al  Al3       1.0  0.003418741495518828  0.0066666687934590855  0.9997870482597796  1.0000
  Al  Al4       1.0  0.006752076031499456  0.003333333960911424  0.9993570131081098  1.0000
  Al  Al5       1.0  0.0035824673968156647  0.0033262514806659087  0.9999999994357953  1.0000
  Al  Al6       1.0  8.54090617657937e-05  0.003375186882295804  0.9995678851896999  1.0000
  Al  Al7       1.0  0.0034605954768419343  6.999999871884422e-10  0.9995678851896999  1.0000
  Al  Al8       1.0  0.006759160522236681  0.00017081109410130427  0.0  1.0000
  Al  Al9       1.0  0.009914590926395708  0.0065029362844788614  0.0  1.0000
  Al  Al10      1.0  0.006710223038802712  0.006624814564620349  0.9995678851896999  1.0000
  W   W1        1.0  0.0034187424930460257  0.00666666748600473  0.9993570131081098  1.0000
  W   W2        1.0  0.006752075327206295  0.003333333307184246  0.9997737928338813  1.0000
