data_image0
_chemical_formula_structural       HAs12Ru6
_chemical_formula_sum              "H1 As12 Ru6"
_cell_length_a       6.96499564089707
_cell_length_b       6.28868662116718
_cell_length_c       105.5301513671875
_cell_angle_alpha    112.33638775106658
_cell_angle_beta     119.21092455476871
_cell_angle_gamma    77.92965437431019

_space_group_name_H-M_alt    "P 1"
_space_group_IT_number       1

loop_
  _space_group_symop_operation_xyz
  'x, y, z'

loop_
  _atom_site_type_symbol
  _atom_site_label
  _atom_site_symmetry_multiplicity
  _atom_site_fract_x
  _atom_site_fract_y
  _atom_site_fract_z
  _atom_site_occupancy
  H   H1        1.0  0.0048625054267244575  0.0031839151101220133  0.00031945685986424624  1.0000
  As  As1       1.0  0.0005697359886903433  0.004881830644571712  0.9995594885342078  1.0000
  As  As2       1.0  0.0039030691866416556  0.008215164421811758  0.9998400569923873  1.0000
  As  As3       1.0  0.00703624850857035  0.0014835213098290325  0.0001179016425589349  1.0000
  As  As4       1.0  0.004559391109745289  0.00959621161833956  0.9996685705513498  1.0000
  As  As5       1.0  0.00797047089451252  0.0029589098765255405  0.999962566702655  1.0000
  As  As6       1.0  0.0014645122811703401  0.007075863457673383  0.00020742094512217498  1.0000
  As  As7       1.0  0.00943026406495159  0.007160774947951204  0.9998844315276573  1.0000
  As  As8       1.0  0.0030633221990254748  0.0004037890343688843  0.00017048845210103556  1.0000
  As  As9       1.0  0.006096931058578609  0.0038274414850642414  0.999603862800362  1.0000
  As  As10      1.0  0.00903219678318095  0.000650600326008778  0.9996241962537201  1.0000
  As  As11      1.0  0.0023655296975963313  0.003983933746879746  0.9999047651013605  1.0000
  As  As12      1.0  0.005922395535186361  0.007245716950084347  0.0001947083114830721  1.0000
  Ru  Ru1       1.0  0.007564563307829118  0.007239021081204176  0.9996140293305336  1.0000
  Ru  Ru2       1.0  0.0008978969119264935  0.0005723541271293356  0.9998945979885647  1.0000
  Ru  Ru3       1.0  0.0040867977112317554  0.004023596263561846  0.00016541197072787327  1.0000
  Ru  Ru4       1.0  0.0075507212369380974  0.007169408311281368  3.4906736483758576e-05  1.0000
  Ru  Ru5       1.0  0.0008978969119264935  0.0005723541271293356  0.9994737450669656  1.0000
  Ru  Ru6       1.0  0.004231230301456138  0.0039056876183172135  0.9997543138072432  1.0000
