data_image0
_chemical_formula_structural       COAg18Pd6
_chemical_formula_sum              "C1 O1 Ag18 Pd6"
_cell_length_a       5.0659496371379324
_cell_length_b       7.756501144919893
_cell_length_c       102.6900634765625
_cell_angle_alpha    86.19461576005789
_cell_angle_beta     89.8541668368097
_cell_angle_gamma    89.69268929771388

_space_group_name_H-M_alt    "P 1"
_space_group_IT_number       1

loop_
  _space_group_symop_operation_xyz
  'x, y, z'

loop_
  _atom_site_type_symbol
  _atom_site_label
  _atom_site_symmetry_multiplicity
  _atom_site_fract_x
  _atom_site_fract_y
  _atom_site_fract_z
  _atom_site_occupancy
  C   C1        1.0  0.00859084319627646  0.008408898216059934  6.854056778082418e-05  1.0000
  O   O1        1.0  0.00859084319627646  0.008408898216059934  0.0001853967105057638  1.0000
  Ag  Ag1       1.0  0.0024576098628235022  0.004558696318894613  0.9998312286777185  1.0000
  Ag  Ag2       1.0  0.005805791463831277  0.009016271155107076  0.999649813034299  1.0000
  Ag  Ag3       1.0  0.009143803888014414  0.00015039600333628498  0.9999980979373848  1.0000
  Ag  Ag4       1.0  0.005825242233437201  0.007367665115130928  0.9999159837561196  1.0000
  Ag  Ag5       1.0  0.009194208316983702  0.0017743240188690067  0.9997393527007967  1.0000
  Ag  Ag6       1.0  0.0024724580955847206  0.00623849319548691  0.9995613862549794  1.0000
  Ag  Ag7       1.0  0.000825989943855706  0.008154141201201837  0.9997844165587235  1.0000
  Ag  Ag8       1.0  0.004139124550289742  0.002627381896115444  0.9996055996170459  1.0000
  Ag  Ag9       1.0  0.0073868432756493685  0.0037277020873168368  0.9999517575777129  1.0000
  Ag  Ag10      1.0  0.002472458111415453  0.00790515987498951  0.9992961052257591  1.0000
  Ag  Ag11      1.0  0.005805791404336784  0.0023496039557491773  0.9991192512108419  1.0000
  Ag  Ag12      1.0  0.009139124756752609  0.0034607152358667437  0.999472959309598  1.0000
  Ag  Ag13      1.0  0.005805791388027497  0.000682937336415015  0.9993845322397606  1.0000
  Ag  Ag14      1.0  0.009139124404902783  0.005127381915369344  0.9992076782804239  1.0000
  Ag  Ag15      1.0  0.0024724579472343443  0.00957182607314461  0.9990308241989744  1.0000
  Ag  Ag16      1.0  0.0008057913807570867  0.0015162707363347524  0.9992518918078798  1.0000
  Ag  Ag17      1.0  0.004139124581951207  0.0059607152551206435  0.9990750375586053  1.0000
  Ag  Ag18      1.0  0.00747245793436703  0.00707182653523821  0.9994287459475777  1.0000
  Pd  Pd1       1.0  0.0008057913689477191  0.009849604013510876  0.99951717289536  1.0000
  Pd  Pd2       1.0  0.004170054085017079  0.0009315584341924494  0.9998691846947639  1.0000
  Pd  Pd3       1.0  0.0074724582862168544  0.0054051598557356105  0.9996940263963193  1.0000
  Pd  Pd4       1.0  0.0008057913056247892  0.0031829372955004772  0.9989866107792742  1.0000
  Pd  Pd5       1.0  0.0041391245661204735  0.004294048575618044  0.9993403185878256  1.0000
  Pd  Pd6       1.0  0.00747245831787832  0.00873849321474081  0.9991634646280949  1.0000
