data_image0
_chemical_formula_structural       HAl15Pt10Al15Pt10
_chemical_formula_sum              "H1 Al30 Pt20"
_cell_length_a       11.270550173084088
_cell_length_b       6.770963535822082
_cell_length_c       110.62577819824219
_cell_angle_alpha    66.0287061401078
_cell_angle_beta     83.17161814699273
_cell_angle_gamma    61.602664989771284

_space_group_name_H-M_alt    "P 1"
_space_group_IT_number       1

loop_
  _space_group_symop_operation_xyz
  'x, y, z'

loop_
  _atom_site_type_symbol
  _atom_site_label
  _atom_site_symmetry_multiplicity
  _atom_site_fract_x
  _atom_site_fract_y
  _atom_site_fract_z
  _atom_site_occupancy
  H   H1        1.0  0.003366082385931132  0.009794310089385664  0.9998216189228987  1.0000
  Al  Al1       1.0  0.00416690338999276  0.008101392064786894  0.998665860728051  1.0000
  Al  Al2       1.0  0.00816690319578385  0.006101391971959858  0.9987882726232213  1.0000
  Al  Al3       1.0  0.0001669033066734848  0.00010139174680310793  0.9991555086007313  1.0000
  Al  Al4       1.0  0.0021669033344693858  0.004101391879132824  0.998910684665222  1.0000
  Al  Al5       1.0  0.006166903473154921  0.002101391786305789  0.9990330965563601  1.0000
  Al  Al6       1.0  0.004873264912870719  0.009315639295636327  0.998987433799972  1.0000
  Al  Al7       1.0  0.008873265384450699  0.007315639202809292  0.9991098456870776  1.0000
  Al  Al8       1.0  0.0008732653177444521  0.0013156391802850843  0.9988650215625975  1.0000
  Al  Al9       1.0  0.002873265190241789  0.005315639109982257  0.9986201976340082  1.0000
  Al  Al10      1.0  0.00687326499603288  0.0033156390171552226  0.9987426095291786  1.0000
  Al  Al11      1.0  0.0034605413790453703  0.006887144151385736  0.9989563477781173  1.0000
  Al  Al12      1.0  0.007460541095976731  0.0048871443998345625  0.9990787602046729  1.0000
  Al  Al13      1.0  0.00946054157325428  0.00888714424421277  0.9988339357320842  1.0000
  Al  Al14      1.0  0.001460541234662267  0.0028871443070075282  0.9985891118781736  1.0000
  Al  Al15      1.0  0.005460541328917937  0.0008871443848184247  0.9987115240350042  1.0000
  Pt  Pt1       1.0  0.005833096575101748  0.00643614468707417  0.9988699386749779  1.0000
  Pt  Pt2       1.0  0.009833096292033109  0.004436144935522997  0.9989923505627383  1.0000
  Pt  Pt3       1.0  0.0018330967693106577  0.008436144779901204  0.9987475267798075  1.0000
  Pt  Pt4       1.0  0.0038330967636130897  0.002436144842695963  0.9991147626007065  1.0000
  Pt  Pt5       1.0  0.007833096547189248  0.00043614483518789374  0.998625114394922  1.0000
  Pt  Pt6       1.0  0.002500709716814341  0.009766638759947892  0.9990738429031114  1.0000
  Pt  Pt7       1.0  0.0065007095226054315  0.007766638667120857  0.9985841946991794  1.0000
  Pt  Pt8       1.0  0.008500709516907862  0.0017666387299156154  0.9989514310588736  1.0000
  Pt  Pt9       1.0  0.0005007099941854117  0.005766638574293823  0.9987066067371476  1.0000
  Pt  Pt10      1.0  0.0045007097111167725  0.0037666388227426497  0.998829018624908  1.0000
  Al  Al16      1.0  0.00416690338999276  0.008101392064786894  0.9992779208271535  1.0000
  Al  Al17      1.0  0.00816690319578385  0.006101391971959858  0.9994003327223239  1.0000
  Al  Al18      1.0  0.00035080446235411303  0.00967019761412243  0.9997552846342433  1.0000
  Al  Al19      1.0  0.0020720655786147426  0.0042203777083980034  0.9995364342804215  1.0000
  Al  Al20      1.0  0.006282827364185647  0.0014778579210597152  0.9996426407110401  1.0000
  Al  Al21      1.0  0.004700462052605761  0.009448950520482275  0.9995905037157051  1.0000
  Al  Al22      1.0  0.009091482949228893  0.007349870536865264  0.9997184603040726  1.0000
  Al  Al23      1.0  0.0008732653177444521  0.0013156391802850843  0.9994770816617  1.0000
  Al  Al24      1.0  0.002873265190241789  0.005315639109982257  0.9992322577331108  1.0000
  Al  Al25      1.0  0.00687326499603288  0.0033156390171552226  0.9993546696282811  1.0000
  Al  Al26      1.0  0.003489027903232195  0.006673603066708172  0.9995834041721763  1.0000
  Al  Al27      1.0  0.007375813499203571  0.005813536020689814  0.9996579939878069  1.0000
  Al  Al28      1.0  0.00946054157325428  0.00888714424421277  0.9994459958311867  1.0000
  Al  Al29      1.0  0.001460541234662267  0.0028871443070075282  0.9992011717078784  1.0000
  Al  Al30      1.0  0.005460541328917937  0.0008871443848184247  0.9993235841341066  1.0000
  Pt  Pt11      1.0  0.005833096575101748  0.00643614468707417  0.9994819987740804  1.0000
  Pt  Pt12      1.0  0.009773801745420016  0.004447385879863558  0.9996107502630796  1.0000
  Pt  Pt13      1.0  0.0018330967693106577  0.008436144779901204  0.9993595868789099  1.0000
  Pt  Pt14      1.0  0.003970350547796579  0.0022314255684116025  0.9997162055114545  1.0000
  Pt  Pt15      1.0  0.007833096547189248  0.00043614483518789374  0.9992371744940245  1.0000
  Pt  Pt16      1.0  0.0024373480929904315  0.009898608088104695  0.9996732584360951  1.0000
  Pt  Pt17      1.0  0.0065007095226054315  0.007766638667120857  0.9991962547982818  1.0000
  Pt  Pt18      1.0  0.008441913657157542  0.001799039118972282  0.9995684073853586  1.0000
  Pt  Pt19      1.0  0.0005007099941854117  0.005766638574293823  0.9993186668362501  1.0000
  Pt  Pt20      1.0  0.0045007097111167725  0.0037666388227426497  0.9994410787240104  1.0000
