data_image0
_chemical_formula_structural       COAg4Ca8Si12
_chemical_formula_sum              "C1 O1 Ag4 Ca8 Si12"
_cell_length_a       8.404677120851797
_cell_length_b       8.404677391052246
_cell_length_c       104.98834228515625
_cell_angle_alpha    90.0
_cell_angle_beta     90.0
_cell_angle_gamma    119.9350110150573

_space_group_name_H-M_alt    "P 1"
_space_group_IT_number       1

loop_
  _space_group_symop_operation_xyz
  'x, y, z'

loop_
  _atom_site_type_symbol
  _atom_site_label
  _atom_site_symmetry_multiplicity
  _atom_site_fract_x
  _atom_site_fract_y
  _atom_site_fract_z
  _atom_site_occupancy
  C   C1        1.0  0.008414583832669338  0.003428528683713662  0.00016105543991904096  1.0000
  O   O1        1.0  0.008414583832669338  0.003428528683713662  0.0002753535081889207  1.0000
  Ag  Ag1       1.0  0.004132703259678531  0.002466867660628008  0.0  1.0000
  Ag  Ag2       1.0  0.0074608532575082395  0.00914919527017617  0.999999676396  1.0000
  Ag  Ag3       1.0  0.009129449439786738  0.0074744199295811485  0.9995810347268105  1.0000
  Ag  Ag4       1.0  0.002461836128349228  0.004142033340777276  0.9995810347268105  1.0000
  Ca  Ca1       1.0  0.000795642663871356  0.0008082268001433754  0.9993727475799054  1.0000
  Ca  Ca2       1.0  0.005795000627191117  0.000807597931972703  0.9997984616996749  1.0000
  Ca  Ca3       1.0  0.0007963765665783993  0.0008081548043546861  0.9998012429908963  1.0000
  Ca  Ca4       1.0  0.005795642528330478  0.0008082265252913639  0.9993751433849584  1.0000
  Ca  Ca5       1.0  0.005796374449071852  0.005807882121265774  0.99980129635717  1.0000
  Ca  Ca6       1.0  0.000795642663871356  0.005808226699306245  0.9993703517748523  1.0000
  Ca  Ca7       1.0  0.005795642528330478  0.005808226507561758  0.9993727475799054  1.0000
  Ca  Ca8       1.0  0.0007943311140732652  0.0058077738874549876  0.9997826573344936  1.0000
  Si  Si1       1.0  0.002384884457140227  0.0089773916660737  0.9999960849593257  1.0000
  Si  Si2       1.0  0.00396805357153262  0.0073974319544279615  0.9999960741725257  1.0000
  Si  Si3       1.0  0.009205668423041848  0.0026384985168025374  0.9999960707661678  1.0000
  Si  Si4       1.0  0.007623498730821814  0.004218558373769815  0.99999608893341  1.0000
  Si  Si5       1.0  0.009202075822561478  0.007401903481059939  0.9999906546571143  1.0000
  Si  Si6       1.0  0.002388950939218699  0.004214110150724541  0.999990668282546  1.0000
  Si  Si7       1.0  0.007423234781891669  0.004052879706345334  0.9995810347268105  1.0000
  Si  Si8       1.0  0.009040296276442275  0.0024358189734910362  0.9995810347268105  1.0000
  Si  Si9       1.0  0.004168050530506792  0.007563573214775572  0.9995810347268105  1.0000
  Si  Si10      1.0  0.002550989547431197  0.009180633981244711  0.9995810347268105  1.0000
  Si  Si11      1.0  0.004179817780357539  0.0024240517278129575  0.9995810347268105  1.0000
  Si  Si12      1.0  0.007411467787778427  0.00919240137633042  0.9995810347268105  1.0000
