data_image0
_chemical_formula_structural       Ir12Sb12CO
_chemical_formula_sum              "Ir12 Sb12 C1 O1"
_cell_length_a       6.947940832266405
_cell_length_b       9.031508333462343
_cell_length_c       101.31314849853516
_cell_angle_alpha    91.34862942982103
_cell_angle_beta     94.82894740940522
_cell_angle_gamma    96.0889290115544

_space_group_name_H-M_alt    "P 1"
_space_group_IT_number       1

loop_
  _space_group_symop_operation_xyz
  'x, y, z'

loop_
  _atom_site_type_symbol
  _atom_site_label
  _atom_site_symmetry_multiplicity
  _atom_site_fract_x
  _atom_site_fract_y
  _atom_site_fract_z
  _atom_site_occupancy
  Ir  Ir1       1.0  0.009392010911361794  0.008422447987832218  0.9993579098248362  1.0000
  Ir  Ir2       1.0  0.005642011052235358  0.005089114433144137  0.9994866901347473  1.0000
  Ir  Ir3       1.0  0.0018920109240680221  0.001755780878456056  0.9996154707372659  1.0000
  Ir  Ir4       1.0  0.005017010997503593  8.911419838705104e-05  0.999679860801253  1.0000
  Ir  Ir5       1.0  0.0025170109925602116  0.006755781210488178  0.9994223000710436  1.0000
  Ir  Ir6       1.0  0.008767010842869604  0.0034224476558000964  0.9995510804910583  1.0000
  Ir  Ir7       1.0  0.00814201084679198  0.008422447987832218  0.9997442510767269  1.0000
  Ir  Ir8       1.0  0.0042976731803623614  0.0049514684419405975  0.9998635596591482  1.0000
  Ir  Ir9       1.0  0.0008840559488418713  0.0017982847253802167  0.9999736644873513  1.0000
  Ir  Ir10      1.0  0.0036514848283292047  0.009910885732871924  4.256603910559591e-05  1.0000
  Ir  Ir11      1.0  0.0012299688397652637  0.006753609720413016  0.9998114168860166  1.0000
  Ir  Ir12      1.0  0.007689260244325868  0.0034835619031390584  0.9999205967600931  1.0000
  Sb  Sb1       1.0  0.001371177604031355  0.008700225230669356  0.9996047390049739  1.0000
  Sb  Sb2       1.0  0.00887117783825508  0.005366892091021426  0.9993471781758122  1.0000
  Sb  Sb3       1.0  0.005121177441046848  0.0020335585363333453  0.999475958482617  1.0000
  Sb  Sb4       1.0  0.00616284460471272  0.008144669914914776  0.9994974220798284  1.0000
  Sb  Sb5       1.0  0.002412844342024935  0.004811336360226696  0.9996262023874098  1.0000
  Sb  Sb6       1.0  0.00991284497353975  0.0014780031168187286  0.999368641560324  1.0000
  Sb  Sb7       1.0  8.715561429789513e-05  0.008801683455981571  0.999997827400446  1.0000
  Sb  Sb8       1.0  0.007621177773685266  0.005366892091021426  0.999733519427703  1.0000
  Sb  Sb9       1.0  0.004192291235504306  0.001963835526162006  0.9998706702865595  1.0000
  Sb  Sb10      1.0  0.004926780298506792  0.008001753328821238  0.9998888688242631  1.0000
  Sb  Sb11      1.0  0.0011987472081134926  0.00474577827798048  1.6877512168903237e-05  1.0000
  Sb  Sb12      1.0  0.008662844370888139  0.0014780031168187286  0.9997549828091085  1.0000
  C   C1        1.0  0.005615210397947758  0.006106704482247704  2.605715238369643e-05  1.0000
  O   O1        1.0  0.005615210397947758  0.006106704482247704  0.00014450203832926125  1.0000
