data_image0
_chemical_formula_structural       HCu4Se8Sn2
_chemical_formula_sum              "H1 Cu4 Se8 Sn2"
_cell_length_a       6.760417938232422
_cell_length_b       6.7604183119935515
_cell_length_c       102.28173065185547
_cell_angle_alpha    90.0
_cell_angle_beta     90.0
_cell_angle_gamma    106.70524404546485

_space_group_name_H-M_alt    "P 1"
_space_group_IT_number       1

loop_
  _space_group_symop_operation_xyz
  'x, y, z'

loop_
  _atom_site_type_symbol
  _atom_site_label
  _atom_site_symmetry_multiplicity
  _atom_site_fract_x
  _atom_site_fract_y
  _atom_site_fract_z
  _atom_site_occupancy
  H   H1        1.0  0.0072743075677910345  0.007290762255348684  8.464730330305868e-05  1.0000
  Cu  Cu1       1.0  0.005038875294657528  0.0018040662781610213  0.9993943943052844  1.0000
  Cu  Cu2       1.0  0.009961125174153283  0.006843140212750681  0.9997981582415796  1.0000
  Cu  Cu3       1.0  3.887512103137556e-05  0.006804065846667072  0.9993943943052844  1.0000
  Cu  Cu4       1.0  0.004998726996281281  0.001889085113159576  0.9997984408751696  1.0000
  Se  Se1       1.0  0.00364823847783749  0.0027751277337155337  0.0  1.0000
  Se  Se2       1.0  0.008530609210378572  0.007731573022123788  0.9995916541944251  1.0000
  Se  Se3       1.0  0.00875859658953151  0.003085531248446622  0.9998045463434612  1.0000
  Se  Se4       1.0  0.0037567617708378297  0.008086179927683916  0.9994173062740563  1.0000
  Se  Se5       1.0  0.008756761820431825  0.0030861799276839155  0.9993714820451377  1.0000
  Se  Se6       1.0  0.003702197306448877  0.008147213883841369  0.9997566740408276  1.0000
  Se  Se7       1.0  0.00908114344764651  0.008195933578007663  1.4743566648772054e-07  1.0000
  Se  Se8       1.0  0.00411136853678476  0.003312332235152466  0.9995916541944251  1.0000
  Sn  Sn1       1.0  3.8875183071042114e-05  0.0018040662781610213  0.9995916541944251  1.0000
  Sn  Sn2       1.0  0.00546747141241337  0.006385590932689706  0.9999282337954006  1.0000
