data_image0
_chemical_formula_structural       COCa3Na3Pb6
_chemical_formula_sum              "C1 O1 Ca3 Na3 Pb6"
_cell_length_a       5.612132157645691
_cell_length_b       5.6121320724487305
_cell_length_c       111.2405776977539
_cell_angle_alpha    90.0
_cell_angle_beta     90.0
_cell_angle_gamma    119.99999949782139

_space_group_name_H-M_alt    "P 1"
_space_group_IT_number       1

loop_
  _space_group_symop_operation_xyz
  'x, y, z'

loop_
  _atom_site_type_symbol
  _atom_site_label
  _atom_site_symmetry_multiplicity
  _atom_site_fract_x
  _atom_site_fract_y
  _atom_site_fract_z
  _atom_site_occupancy
  C   C1        1.0  0.005000000505877698  0.006666701458933771  7.668137378455166e-05  1.0000
  O   O1        1.0  0.005000000505877698  0.006666701458933771  0.0001845553615181895  1.0000
  Ca  Ca1       1.0  0.004999999739396337  0.006666671205037649  0.9996053693625573  1.0000
  Ca  Ca2       1.0  0.008333312587237842  0.0033333776855389986  0.0  1.0000
  Ca  Ca3       1.0  0.0016666665797987793  4.814419687482914e-09  0.999193443608855  1.0000
  Na  Na1       1.0  0.0016666880412768731  0.009999995004104676  0.9998168543742424  1.0000
  Na  Na2       1.0  0.004999999739396337  0.006666671205037649  0.9989874807320038  1.0000
  Na  Na3       1.0  0.008333333282234576  0.0033333380826635426  0.9993994064857061  1.0000
  Pb  Pb1       1.0  0.004999999739396337  0.006666671205037649  0.9992964250472806  1.0000
  Pb  Pb2       1.0  0.008333333282234576  0.0033333380826635426  0.9997083508009829  1.0000
  Pb  Pb3       1.0  0.0016666665797987793  4.814419687482914e-09  0.9988844992935783  1.0000
  Pb  Pb4       1.0  0.008333333282234576  0.0033333380826635426  0.9990904621704294  1.0000
  Pb  Pb5       1.0  0.0016666665797987793  4.814419687482914e-09  0.9995023879241317  1.0000
  Pb  Pb6       1.0  0.005000000505877698  0.006666701458933771  0.9999209781755115  1.0000
