data_image0
_chemical_formula_structural       COV3Si6V3Si6
_chemical_formula_sum              "C1 O1 V6 Si12"
_cell_length_a       4.582751862097735
_cell_length_b       6.397009372711182
_cell_length_c       33.33798599243164
_cell_angle_alpha    90.0
_cell_angle_beta     60.0000008023276
_cell_angle_gamma    90.0

_space_group_name_H-M_alt    "P 1"
_space_group_IT_number       1

loop_
  _space_group_symop_operation_xyz
  'x, y, z'

loop_
  _atom_site_type_symbol
  _atom_site_label
  _atom_site_symmetry_multiplicity
  _atom_site_fract_x
  _atom_site_fract_y
  _atom_site_fract_z
  _atom_site_occupancy
  C   C1        1.0  0.0012446363822359464  0.0016663875488604563  0.9998752085252769  1.0000
  O   O1        1.0  0.0012446363822359464  0.0016663875488604563  0.0002351585660579126  1.0000
  V   V1        1.0  0.005798635034140986  0.003371995993664344  0.998958627244876  1.0000
  V   V2        1.0  0.00593418671981011  0.006783650518344414  0.9995921333612231  1.0000
  V   V3        1.0  0.0010548273915285398  0.00996077923217329  0.9995919577220698  1.0000
  Si  Si1       1.0  0.007486396969729191  0.00012697655507330663  0.9992071511186977  1.0000
  Si  Si2       1.0  0.009185790172307692  0.006705887745079368  0.9987303207033366  1.0000
  Si  Si3       1.0  0.008967223914693673  0.0033720108435570167  0.9994622650341507  1.0000
  Si  Si4       1.0  0.004071046697974585  3.922075035624834e-05  0.9987303209050595  1.0000
  Si  Si5       1.0  0.0023041029282809817  0.006618123714686466  0.9992070088975437  1.0000
  Si  Si6       1.0  0.002442628018784751  0.0033725541749242164  0.9985064729008608  1.0000
  V   V4        1.0  0.005814209095546222  0.0033725541749242164  0.9975795349471365  1.0000
  V   V5        1.0  0.005814209095546222  0.006705887745079368  0.9982668516312205  1.0000
  V   V6        1.0  0.0008142093395949171  3.922075035624834e-05  0.9982668516859622  1.0000
  Si  Si7       1.0  0.007557371962442273  3.922075035624834e-05  0.9978033827720965  1.0000
  Si  Si8       1.0  0.009185790172307692  0.006705887745079368  0.9973556873351684  1.0000
  Si  Si9       1.0  0.009185790172307692  0.0033725541749242164  0.9980272308085526  1.0000
  Si  Si10      1.0  0.004071046697974585  3.922075035624834e-05  0.997355687089919  1.0000
  Si  Si11      1.0  0.002442628018784751  0.006705887745079368  0.9978033830060768  1.0000
  Si  Si12      1.0  0.002442628018784751  0.0033725541749242164  0.9971318390857202  1.0000
