data_image0
_chemical_formula_structural       HV6Si12V6Si12
_chemical_formula_sum              "H1 V12 Si24"
_cell_length_a       4.582764252983845
_cell_length_b       13.589945455626756
_cell_length_c       106.66211700439453
_cell_angle_alpha    109.70742481804137
_cell_angle_beta     119.99999924733646
_cell_angle_gamma    80.29306855193282

_space_group_name_H-M_alt    "P 1"
_space_group_IT_number       1

loop_
  _space_group_symop_operation_xyz
  'x, y, z'

loop_
  _atom_site_type_symbol
  _atom_site_label
  _atom_site_symmetry_multiplicity
  _atom_site_fract_x
  _atom_site_fract_y
  _atom_site_fract_z
  _atom_site_occupancy
  H   H1        1.0  0.0018465811365030202  0.007860227850336084  0.0003773860339430325  1.0000
  V   V1        1.0  0.0050427833478800975  0.0008555616229680656  0.999742602574592  1.0000
  V   V2        1.0  0.0050427833478800975  0.005855561465732935  0.9995277764694803  1.0000
  V   V3        1.0  0.0050427833478800975  0.004188894997066063  0.9996709938992442  1.0000
  V   V4        1.0  0.0050427833478800975  0.009188894985419015  0.9994561678003877  1.0000
  V   V5        1.0  4.278349806350511e-05  0.002522228237223022  0.9995993851207807  1.0000
  V   V6        1.0  4.278349806350511e-05  0.007522228225575975  0.9998142113527525  1.0000
  Si  Si1       1.0  0.0067858288649264254  0.002522228237223022  0.999744243423936  1.0000
  Si  Si2       1.0  0.0067858288649264254  0.007522228225575975  0.9995294173250795  1.0000
  Si  Si3       1.0  0.008414306031311557  0.004188894997066063  0.9995261355742573  1.0000
  Si  Si4       1.0  0.008414306031311557  0.009188894985419015  0.999740961806229  1.0000
  Si  Si5       1.0  0.008414306031311557  0.0008555616229680656  0.999602666871906  1.0000
  Si  Si6       1.0  0.008414306031311557  0.005855561465732935  0.9998174930976225  1.0000
  Si  Si7       1.0  0.0032997378308337708  0.002522228237223022  0.9994545268782309  1.0000
  Si  Si8       1.0  0.0032997378308337708  0.007522228225575975  0.9996693531102027  1.0000
  Si  Si9       1.0  0.0016712605471178512  0.004188894997066063  0.9998158522217105  1.0000
  Si  Si10      1.0  0.0016712605471178512  0.009188894985419015  0.9996010261228541  1.0000
  Si  Si11      1.0  0.0016712605471178512  0.0008555616229680656  0.9994528859439293  1.0000
  Si  Si12      1.0  0.0016712605471178512  0.005855561465732935  0.9996677121696458  1.0000
  V   V7        1.0  0.004841253172699564  0.000811104991286891  0.00015267281528050266  1.0000
  V   V8        1.0  0.0050427833478800975  0.005855561465732935  0.9999574288003086  1.0000
  V   V9        1.0  0.005257782628051028  0.004172462761223691  0.0001041088361436372  1.0000
  V   V10       1.0  0.0050427833478800975  0.009188894985419015  0.999885820131216  1.0000
  V   V11       1.0  0.00995721620156968  0.0025209310473963613  2.8222371545676748e-05  1.0000
  V   V12       1.0  0.009762465868568012  0.007459121614771899  0.00022794037770566272  1.0000
  Si  Si13      1.0  0.006434008746411292  0.002495189618299631  0.00017260521243948461  1.0000
  Si  Si14      1.0  0.0067858288649264254  0.007522228225575975  0.9999590696559078  1.0000
  Si  Si15      1.0  0.008414306031311557  0.004188894997066063  0.9999557881844942  1.0000
  Si  Si16      1.0  0.008142155863583725  0.00918533273618459  0.00017403289274421638  1.0000
  Si  Si17      1.0  0.00852907055904812  0.0008584617375973674  4.167373437113327e-05  1.0000
  Si  Si18      1.0  0.008211021526208236  0.0059392757786227756  0.0002493391174877928  1.0000
  Si  Si19      1.0  0.0032997378308337708  0.002522228237223022  0.9998841794884678  1.0000
  Si  Si20      1.0  0.0035236589440256227  0.0075584872290226065  0.00011928576904852984  1.0000
  Si  Si21      1.0  0.0017906190444769961  0.004300260272359758  0.00022685454406574823  1.0000
  Si  Si22      1.0  0.001634487553264798  0.009175713440311737  3.0652948565560975e-05  1.0000
  Si  Si23      1.0  0.0016712605471178512  0.0008555616229680656  0.9998825382747575  1.0000
  Si  Si24      1.0  0.0017192747689833779  0.00584676153959571  0.00010313553048377305  1.0000
