data_image0
_chemical_formula_structural       COCa3Sn9Ca3Sn9
_chemical_formula_sum              "C1 O1 Ca6 Sn18"
_cell_length_a       4.82914400100708
_cell_length_b       10.798294464428842
_cell_length_c       110.97664642333984
_cell_angle_alpha    71.56505117707799
_cell_angle_beta     90.0
_cell_angle_gamma    90.0

_space_group_name_H-M_alt    "P 1"
_space_group_IT_number       1

loop_
  _space_group_symop_operation_xyz
  'x, y, z'

loop_
  _atom_site_type_symbol
  _atom_site_label
  _atom_site_symmetry_multiplicity
  _atom_site_fract_x
  _atom_site_fract_y
  _atom_site_fract_z
  _atom_site_occupancy
  C   C1        1.0  0.0049999981794526934  0.009783622406645378  0.99997550492224  1.0000
  O   O1        1.0  0.0049999981794526934  0.009783622406645378  8.363599941196613e-05  1.0000
  Ca  Ca1       1.0  1.7000000501242257e-09  0.00688304382364118  0.9990155971460621  1.0000
  Ca  Ca2       1.0  1.7000000501242257e-09  0.0035497107230439045  0.9988104656818059  1.0000
  Ca  Ca3       1.0  1.7000000501242257e-09  0.0002163775542622374  0.9992207286124164  1.0000
  Sn  Sn1       1.0  0.00500000165083527  0.0052163772733425425  0.9989130311453881  1.0000
  Sn  Sn2       1.0  0.00500000165083527  0.001883044172745267  0.9987078996811319  1.0000
  Sn  Sn3       1.0  0.00500000165083527  0.008549710373939817  0.9991181626096444  1.0000
  Sn  Sn4       1.0  1.7000000501242257e-09  0.00688304382364118  0.9987078999496778  1.0000
  Sn  Sn5       1.0  1.7000000501242257e-09  0.0035497107230439045  0.9991181628781902  1.0000
  Sn  Sn6       1.0  1.7000000501242257e-09  0.0002163775542622374  0.998913031416032  1.0000
  Sn  Sn7       1.0  0.00500000165083527  0.008549710373939817  0.99881046541326  1.0000
  Sn  Sn8       1.0  0.00500000165083527  0.0052163772733425425  0.9992207283417724  1.0000
  Sn  Sn9       1.0  0.00500000165083527  0.001883044172745267  0.9990155968775163  1.0000
  Ca  Ca4       1.0  2.8999999881363733e-09  0.006975552770247991  0.9996251561485148  1.0000
  Ca  Ca5       1.0  1.7000000501242257e-09  0.0035497107230439045  0.9994258600745746  1.0000
  Ca  Ca6       1.0  0.009999997901742087  0.00031829044676170813  0.9998109889686339  1.0000
  Sn  Sn10      1.0  0.00500000165083527  0.0052163772733425425  0.9995284255381568  1.0000
  Sn  Sn11      1.0  0.00500000165083527  0.001883044172745267  0.9993232940739005  1.0000
  Sn  Sn12      1.0  0.005000002036544445  0.00851818118376448  0.999737897934846  1.0000
  Sn  Sn13      1.0  1.7000000501242257e-09  0.00688304382364118  0.9993232943424465  1.0000
  Sn  Sn14      1.0  0.009999996358905387  0.00361960463415195  0.9997514434007746  1.0000
  Sn  Sn15      1.0  1.7000000501242257e-09  0.0002163775542622374  0.9995284258088007  1.0000
  Sn  Sn16      1.0  0.00500000165083527  0.008549710373939817  0.9994258598060287  1.0000
  Sn  Sn17      1.0  0.0049999981794526934  0.005161799576760169  0.9998151265971412  1.0000
  Sn  Sn18      1.0  0.004999994322360942  0.0019085654997699636  0.9996202133935507  1.0000
