data_image0
_chemical_formula_structural       COSi8W4Si8W4
_chemical_formula_sum              "C1 O1 Si16 W8"
_cell_length_a       4.5803093910217285
_cell_length_b       8.519773259737834
_cell_length_c       37.93783187866211
_cell_angle_alpha    74.40685087137781
_cell_angle_beta     90.0
_cell_angle_gamma    74.40685087137781

_space_group_name_H-M_alt    "P 1"
_space_group_IT_number       1

loop_
  _space_group_symop_operation_xyz
  'x, y, z'

loop_
  _atom_site_type_symbol
  _atom_site_label
  _atom_site_symmetry_multiplicity
  _atom_site_fract_x
  _atom_site_fract_y
  _atom_site_fract_z
  _atom_site_occupancy
  C   C1        1.0  0.0007126412858764738  0.00685520916328092  8.265274273347211e-06  1.0000
  O   O1        1.0  0.0007126412858764738  0.00685520916328092  0.0003245724753784057  1.0000
  Si  Si1       1.0  0.008669704129744495  0.004273082247355711  0.9997396418665294  1.0000
  Si  Si2       1.0  0.0037270676953420913  0.004160143948045652  0.9991274419064518  1.0000
  Si  Si3       1.0  0.009605985832609376  0.002400954785015249  0.9992932152979478  1.0000
  Si  Si4       1.0  0.004564617125751136  0.0024808946784297833  0.9997940388220443  1.0000
  Si  Si5       1.0  0.006219368750667998  0.009174646038795  0.9988335359491947  1.0000
  Si  Si6       1.0  0.0012273878150256034  0.009160362582221731  0.9994470256643196  1.0000
  Si  Si7       1.0  0.007086796218905994  0.007440493817036091  0.9995471307718856  1.0000
  Si  Si8       1.0  0.0020686604991660934  0.007476062053802479  0.9989360726492726  1.0000
  W   W1        1.0  0.00039401453553984526  0.000825354001388155  0.9987338892539441  1.0000
  W   W2        1.0  0.005385626952781365  0.0008422861187251727  0.9993226227306617  1.0000
  W   W3        1.0  0.007894014685459541  0.005825354169211916  0.9990357192612589  1.0000
  W   W4        1.0  0.0029036298974818276  0.005804990292355155  0.9996043208843912  1.0000
  Si  Si9       1.0  0.008719368627754822  0.004174646284621352  0.9985317063096879  1.0000
  Si  Si10      1.0  0.003719368383756656  0.004174646284621352  0.9979280463533523  1.0000
  Si  Si11      1.0  0.009568660738436829  0.0024760620632573384  0.9980305830676991  1.0000
  Si  Si12      1.0  0.004568660494438663  0.0024760620632573384  0.9986342430240347  1.0000
  Si  Si13      1.0  0.006219368750667998  0.009174646038795  0.9976262164293019  1.0000
  Si  Si14      1.0  0.0012193685066698326  0.009174646038795  0.9982298759928591  1.0000
  Si  Si15      1.0  0.007068660743164259  0.007476062053802479  0.998332412692937  1.0000
  Si  Si16      1.0  0.0020686604991660934  0.007476062053802479  0.9977287531293798  1.0000
  W   W5        1.0  0.00039401453553984526  0.000825354001388155  0.9975265697340513  1.0000
  W   W6        1.0  0.005394014525373254  0.000825354001388155  0.9981302296903869  1.0000
  W   W7        1.0  0.007894014685459541  0.005825354169211916  0.9978283997413661  1.0000
  W   W8        1.0  0.0028940144414613747  0.005825354169211916  0.9984320596977017  1.0000
