data_image0
_chemical_formula_structural       COCa8As4
_chemical_formula_sum              "C1 O1 Ca8 As4"
_cell_length_a       4.632970809936523
_cell_length_b       4.632970809936523
_cell_length_c       118.25944519042969
_cell_angle_alpha    90.0
_cell_angle_beta     90.0
_cell_angle_gamma    90.0

_space_group_name_H-M_alt    "P 1"
_space_group_IT_number       1

loop_
  _space_group_symop_operation_xyz
  'x, y, z'

loop_
  _atom_site_type_symbol
  _atom_site_label
  _atom_site_symmetry_multiplicity
  _atom_site_fract_x
  _atom_site_fract_y
  _atom_site_fract_z
  _atom_site_occupancy
  C   C1        1.0  0.00499999102644039  0.002500012800991844  0.00014646199039231118  1.0000
  O   O1        1.0  0.00499999102644039  0.002500012800991844  0.00024793350241172836  1.0000
  Ca  Ca1       1.0  9.4000005384826e-09  0.002499987472396173  0.9995691908679797  1.0000
  Ca  Ca2       1.0  0.005000009520335642  0.007499987745784189  0.9995691908679797  1.0000
  Ca  Ca3       1.0  9.4000005384826e-09  0.007499987745784189  0.9991328380646962  1.0000
  Ca  Ca4       1.0  0.005000009520335642  0.002499987472396173  0.9993254084408041  1.0000
  Ca  Ca5       1.0  0.005000009520335642  0.007499987745784189  0.9988890556375206  1.0000
  Ca  Ca6       1.0  9.4000005384826e-09  0.002499987472396173  0.9988890556375206  1.0000
  Ca  Ca7       1.0  0.005000002283594022  0.002500005363229623  0.9998149949030684  1.0000
  Ca  Ca8       1.0  0.009999990897787206  0.007500013476421062  0.0  1.0000
  As  As1       1.0  9.4000005384826e-09  0.007499987745784189  0.9993863822724903  1.0000
  As  As2       1.0  0.005000009520335642  0.002499987472396173  0.99907186423301  1.0000
  As  As3       1.0  0.005000009520335642  0.002499987472396173  0.9987062470420313  1.0000
  As  As4       1.0  9.600000484677315e-09  0.007499987745784189  0.9997518396904178  1.0000
