data_image0
_chemical_formula_structural       HAl16
_chemical_formula_sum              "H1 Al16"
_cell_length_a       5.741629600524902
_cell_length_b       5.741629600524902
_cell_length_c       98.41961669921875
_cell_angle_alpha    90.0
_cell_angle_beta     90.0
_cell_angle_gamma    90.0

_space_group_name_H-M_alt    "P 1"
_space_group_IT_number       1

loop_
  _space_group_symop_operation_xyz
  'x, y, z'

loop_
  _atom_site_type_symbol
  _atom_site_label
  _atom_site_symmetry_multiplicity
  _atom_site_fract_x
  _atom_site_fract_y
  _atom_site_fract_z
  _atom_site_occupancy
  H   H1        1.0  0.0037499999351178924  0.0037499999351178924  0.00015240849535846977  1.0000
  Al  Al1       1.0  0.0012499999513384194  0.0012499999513384194  0.9997937430223172  1.0000
  Al  Al2       1.0  0.0037499999351178924  0.0037499999351178924  0.0  1.0000
  Al  Al3       1.0  0.00625  0.0012499999513384194  0.9993812293697601  1.0000
  Al  Al4       1.0  0.0037499999351178924  0.0037499999351178924  0.9995874860446342  1.0000
  Al  Al5       1.0  0.0012499999513384194  0.00625  0.9997937430223172  1.0000
  Al  Al6       1.0  0.0037499999351178924  0.008749999740471569  0.0  1.0000
  Al  Al7       1.0  0.00625  0.00625  0.9993812293697601  1.0000
  Al  Al8       1.0  0.0037499999351178924  0.008749999740471569  0.9995874860446342  1.0000
  Al  Al9       1.0  0.00625  0.0012499999513384194  0.9997937430223172  1.0000
  Al  Al10      1.0  0.008749999740471569  0.0037499999351178924  0.0  1.0000
  Al  Al11      1.0  0.0012499999513384194  0.0012499999513384194  0.9993812293697601  1.0000
  Al  Al12      1.0  0.008749999740471569  0.0037499999351178924  0.9995874860446342  1.0000
  Al  Al13      1.0  0.00625  0.00625  0.9997937430223172  1.0000
  Al  Al14      1.0  0.008749999740471569  0.008749999740471569  0.0  1.0000
  Al  Al15      1.0  0.0012499999513384194  0.00625  0.9993812293697601  1.0000
  Al  Al16      1.0  0.008749999740471569  0.008749999740471569  0.9995874860446342  1.0000
