data_image0
_chemical_formula_structural       HTi2Cu2Ti2Cu2Ti2Cu2Ti2Cu2Ti2Cu2Ti2Cu2Ti2Cu2Ti2Cu2
_chemical_formula_sum              "H1 Ti16 Cu16"
_cell_length_a       6.291202068328857
_cell_length_b       6.291202068328857
_cell_length_c       105.80201721191406
_cell_angle_alpha    90.0
_cell_angle_beta     90.0
_cell_angle_gamma    90.0

_space_group_name_H-M_alt    "P 1"
_space_group_IT_number       1

loop_
  _space_group_symop_operation_xyz
  'x, y, z'

loop_
  _atom_site_type_symbol
  _atom_site_label
  _atom_site_symmetry_multiplicity
  _atom_site_fract_x
  _atom_site_fract_y
  _atom_site_fract_z
  _atom_site_occupancy
  H   H1        1.0  0.0024999968971714864  0.0037499968261143447  0.0001164488052148874  1.0000
  Ti  Ti1       1.0  2.350000143542582e-09  0.003750000082899999  0.9994416244185582  1.0000
  Ti  Ti2       1.0  0.0025000025225285247  0.00125000007697857  0.9990403398550133  1.0000
  Cu  Cu1       1.0  2.350000143542582e-09  0.003750000082899999  0.9991784253534585  1.0000
  Cu  Cu2       1.0  0.0025000025225285247  0.00125000007697857  0.999303539201793  1.0000
  Ti  Ti3       1.0  0.009999997062971484  0.0037499968261143447  0.0  1.0000
  Ti  Ti4       1.0  0.0025000025225285247  0.00125000007697857  0.9996043177718886  1.0000
  Cu  Cu3       1.0  0.009999998247257176  0.003749997714328614  0.999746622556495  1.0000
  Cu  Cu4       1.0  0.002500003706814217  0.0012500067385855893  0.9998711938889643  1.0000
  Ti  Ti5       1.0  2.350000143542582e-09  0.008750000094742855  0.9994416244185582  1.0000
  Ti  Ti6       1.0  0.0025000025225285247  0.006250000236857138  0.9990403398550133  1.0000
  Cu  Cu5       1.0  2.350000143542582e-09  0.008750000094742855  0.9991784253534585  1.0000
  Cu  Cu6       1.0  0.0025000025225285247  0.006250000236857138  0.999303539201793  1.0000
  Ti  Ti7       1.0  0.009999997062971484  0.008749997134028626  0.0  1.0000
  Ti  Ti8       1.0  0.0025000025225285247  0.006250000236857138  0.9996043177718886  1.0000
  Cu  Cu7       1.0  0.009999998247257176  0.00874999772617147  0.999746622556495  1.0000
  Cu  Cu8       1.0  0.002500003706814217  0.006250006750428447  0.9998711938889643  1.0000
  Ti  Ti9       1.0  0.005000002676485665  0.003750000082899999  0.9994416244185582  1.0000
  Ti  Ti10      1.0  0.007500002534371382  0.00125000007697857  0.9990403398550133  1.0000
  Cu  Cu9       1.0  0.005000002676485665  0.003750000082899999  0.9991784253534585  1.0000
  Cu  Cu10      1.0  0.007500002534371382  0.00125000007697857  0.999303539201793  1.0000
  Ti  Ti11      1.0  0.004999996755057203  0.0037499968261143447  0.0  1.0000
  Ti  Ti12      1.0  0.007500002534371382  0.00125000007697857  0.9996043177718886  1.0000
  Cu  Cu11      1.0  0.004999997939342896  0.003749997714328614  0.999746622556495  1.0000
  Cu  Cu12      1.0  0.007500003718657074  0.0012500067385855893  0.9998711938889643  1.0000
  Ti  Ti13      1.0  0.005000002676485665  0.008750000094742855  0.9994416244185582  1.0000
  Ti  Ti14      1.0  0.007500002534371382  0.006250000236857138  0.9990403398550133  1.0000
  Cu  Cu13      1.0  0.005000002676485665  0.008750000094742855  0.9991784253534585  1.0000
  Cu  Cu14      1.0  0.007500002534371382  0.006250000236857138  0.999303539201793  1.0000
  Ti  Ti15      1.0  0.004999996755057203  0.008749997134028626  0.0  1.0000
  Ti  Ti16      1.0  0.007500002534371382  0.006250000236857138  0.9996043177718886  1.0000
  Cu  Cu15      1.0  0.004999997939342896  0.00874999772617147  0.999746622556495  1.0000
  Cu  Cu16      1.0  0.007500003718657074  0.006250006750428447  0.9998711938889643  1.0000
