data_image0
_chemical_formula_structural       V20Si12H
_chemical_formula_sum              "V20 Si12 H1"
_cell_length_a       9.433889389038086
_cell_length_b       4.744046688079834
_cell_length_c       32.264442443847656
_cell_angle_alpha    90.0
_cell_angle_beta     90.0
_cell_angle_gamma    90.0

_space_group_name_H-M_alt    "P 1"
_space_group_IT_number       1

loop_
  _space_group_symop_operation_xyz
  'x, y, z'

loop_
  _atom_site_type_symbol
  _atom_site_label
  _atom_site_symmetry_multiplicity
  _atom_site_fract_x
  _atom_site_fract_y
  _atom_site_fract_z
  _atom_site_occupancy
  V   V1        1.0  0.007624111195493396  2.500000129103745e-10  0.9987925643449402  1.0000
  V   V2        1.0  0.0003737649662942965  0.007500000376922796  0.9990111369596343  1.0000
  V   V3        1.0  0.003123419477502363  0.005000000643909777  0.9987925643449402  1.0000
  V   V4        1.0  0.007665310214412438  0.005000000251281864  0.9992442091881524  1.0000
  V   V5        1.0  0.0003737649662942965  0.0025000003219548886  0.9990111369596343  1.0000
  V   V6        1.0  0.009447551214852181  0.0049999998586539515  0.9997586344265086  1.0000
  V   V7        1.0  0.003082293709532306  3.5000002743550323e-10  0.9992441994894141  1.0000
  V   V8        1.0  0.009626235354548809  2.500000129103745e-10  0.9982071577354034  1.0000
  V   V9        1.0  0.0011212948248421728  0.005000000643909777  0.9982071577354034  1.0000
  V   V10       1.0  0.0013000521167668303  0.010000000502563729  0.9997586247277702  1.0000
  V   V11       1.0  0.002624110800609574  0.005000000643909777  0.9973306005429224  1.0000
  V   V12       1.0  0.005373765040335013  0.0025000003219548886  0.9975491729266942  1.0000
  V   V13       1.0  0.008123419674944274  2.500000129103745e-10  0.9973306005429224  1.0000
  V   V14       1.0  0.002624110800609574  2.500000129103745e-10  0.9977677453104661  1.0000
  V   V15       1.0  0.005373765040335013  0.007500000376922796  0.9975491729266942  1.0000
  V   V16       1.0  0.004626235354548809  2.500000129103745e-10  0.9983531519200028  1.0000
  V   V17       1.0  0.008123419674944274  0.005000000643909777  0.9977677453104661  1.0000
  V   V18       1.0  0.004612337418432798  0.005000001036537689  0.9996713009824804  1.0000
  V   V19       1.0  0.006135284670167759  1.5500000613223643e-09  0.9996712945166548  1.0000
  V   V20       1.0  0.00612129512100504  0.005000000643909777  0.9983531519200028  1.0000
  Si  Si1       1.0  0.00871483085704321  0.005000000643909777  0.9985260762680703  1.0000
  Si  Si2       1.0  0.005373765040335013  0.007500000376922796  0.9990111369596343  1.0000
  Si  Si3       1.0  0.0020326996185106375  2.500000129103745e-10  0.9985260762680703  1.0000
  Si  Si4       1.0  0.001993672263170797  0.005000000251281864  0.999504547341223  1.0000
  Si  Si5       1.0  0.0003737649662942965  0.007500000376922796  0.9975491729266942  1.0000
  Si  Si6       1.0  0.008753925934958528  0.010000000502563729  0.999504531176659  1.0000
  Si  Si7       1.0  0.0038186391008274236  6.500000242059948e-10  0.0  1.0000
  Si  Si8       1.0  0.0003737649662942965  0.0025000003219548886  0.9975491729266942  1.0000
  Si  Si9       1.0  0.006928984567308422  0.00500000260704934  2.263038946881802e-08  1.0000
  Si  Si10      1.0  0.007032700013394459  2.500000129103745e-10  0.9980342333873359  1.0000
  Si  Si11      1.0  0.005373765040335013  0.0025000003219548886  0.9990111369596343  1.0000
  Si  Si12      1.0  0.003714830462159389  0.005000000643909777  0.9980342333873359  1.0000
  H   H1        1.0  0.004612337418432798  0.005000001036537689  0.0001362090813000344  1.0000
