data_image0
_chemical_formula_structural       COAg12Sn4
_chemical_formula_sum              "C1 O1 Ag12 Sn4"
_cell_length_a       4.954258918762207
_cell_length_b       8.13156273086966
_cell_length_c       102.52625274658203
_cell_angle_alpha    81.04234957467612
_cell_angle_beta     90.0
_cell_angle_gamma    90.0

_space_group_name_H-M_alt    "P 1"
_space_group_IT_number       1

loop_
  _space_group_symop_operation_xyz
  'x, y, z'

loop_
  _atom_site_type_symbol
  _atom_site_label
  _atom_site_symmetry_multiplicity
  _atom_site_fract_x
  _atom_site_fract_y
  _atom_site_fract_z
  _atom_site_occupancy
  C   C1        1.0  0.0016666671027900928  0.008553269198507012  0.9999902498569843  1.0000
  O   O1        1.0  0.0016666671027900928  0.008553269198507012  0.00010729328729822837  1.0000
  Ag  Ag1       1.0  0.005000000180464866  0.008463831299571425  0.9998586258273873  1.0000
  Ag  Ag2       1.0  0.005000000180464866  0.00340776927740218  0.9994658990707305  1.0000
  Ag  Ag3       1.0  0.009999999608992791  0.004118098961997225  0.999801723436114  1.0000
  Ag  Ag4       1.0  1.9999998995666456e-10  0.00916355286017841  0.9994059561222447  1.0000
  Ag  Ag5       1.0  4.99999986096395e-10  0.007814609288151869  0.9997133380490114  1.0000
  Ag  Ag6       1.0  1.9999998995666456e-10  0.002959940920712552  0.99930274436214  1.0000
  Ag  Ag7       1.0  0.004999999052559454  0.004818298219788998  0.9999404977420779  1.0000
  Ag  Ag8       1.0  0.005000000180464866  0.009611381448759873  0.9995691108279715  1.0000
  Ag  Ag9       1.0  1.9999998995666456e-10  0.005464894751826907  0.9995014170207247  1.0000
  Ag  Ag10      1.0  3.9999997991332913e-10  0.0003886186022563306  0.9998857168522524  1.0000
  Ag  Ag11      1.0  0.005000000180464866  0.0020723619275929946  0.9997876850383746  1.0000
  Ag  Ag12      1.0  0.005000000180464866  0.0071064278495373565  0.9993704381665232  1.0000
  Sn  Sn1       1.0  1.9999998995666456e-10  0.006688761432230475  0.9992056770450626  1.0000
  Sn  Sn2       1.0  1.9999998995666456e-10  0.0016887613487494137  0.9996022367358234  1.0000
  Sn  Sn3       1.0  0.005000000180464866  0.005882561169133788  0.9996661784328652  1.0000
  Sn  Sn4       1.0  0.005000000180464866  0.0008825610276797674  0.9992696182681671  1.0000
