data_image0
_chemical_formula_structural       HRe3V9Re3V9Re3V9Re3V9
_chemical_formula_sum              "H1 Re12 V36"
_cell_length_a       8.529214859008789
_cell_length_b       8.529215123704917
_cell_length_c       101.33834075927734
_cell_angle_alpha    90.0
_cell_angle_beta     90.0
_cell_angle_gamma    119.99999897340174

_space_group_name_H-M_alt    "P 1"
_space_group_IT_number       1

loop_
  _space_group_symop_operation_xyz
  'x, y, z'

loop_
  _atom_site_type_symbol
  _atom_site_label
  _atom_site_symmetry_multiplicity
  _atom_site_fract_x
  _atom_site_fract_y
  _atom_site_fract_z
  _atom_site_occupancy
  H   H1        1.0  0.003333192594757384  0.001666568806889563  4.646344595143473e-05  1.0000
  Re  Re1       1.0  0.0016666457017788122  0.0033332634457407177  0.9998592350979502  1.0000
  Re  Re2       1.0  5.165000212155018e-08  5.3450001580158425e-08  0.9995118632571633  1.0000
  Re  Re3       1.0  0.0033333850807437575  0.0016667201078453848  0.9991682577928532  1.0000
  V   V1        1.0  0.0016667183569191045  0.003333386756019713  0.9995977644026754  1.0000
  V   V2        1.0  5.165000212155018e-08  5.3450001580158425e-08  0.9992541592324525  1.0000
  V   V3        1.0  0.003333192594757384  0.001666568806889563  0.9999248859778708  1.0000
  V   V4        1.0  0.009999948454873689  0.00999994617720665  0.9997674333841843  1.0000
  V   V5        1.0  0.0033333850807437575  0.0016667201078453848  0.999425961817564  1.0000
  V   V6        1.0  0.0016667183569191045  0.003333386756019713  0.9990823566473411  1.0000
  V   V7        1.0  0.0033333850807437575  0.0016667201078453848  0.9996836655481874  1.0000
  V   V8        1.0  0.0016667183569191045  0.003333386756019713  0.9993400603779646  1.0000
  V   V9        1.0  0.009999592585074326  0.009999843292556692  0.0  1.0000
  Re  Re4       1.0  0.0016666457298117588  0.008333263768516092  0.9998592350979502  1.0000
  Re  Re5       1.0  5.140381506686525e-08  0.005000053278109911  0.9995118632571633  1.0000
  Re  Re6       1.0  0.003333384909002217  0.006666720052368368  0.9991682577928532  1.0000
  V   V10       1.0  0.0016667183964576527  0.008333386826626826  0.9995977644026754  1.0000
  V   V11       1.0  5.140381506686525e-08  0.005000053278109911  0.9992541592324525  1.0000
  V   V12       1.0  0.003333192358519615  0.006666568751412546  0.9999248859778708  1.0000
  V   V13       1.0  0.009999948895068868  0.004999946358767797  0.9997674333841843  1.0000
  V   V14       1.0  0.003333384909002217  0.006666720052368368  0.999425961817564  1.0000
  V   V15       1.0  0.0016667183964576527  0.008333386826626826  0.9990823566473411  1.0000
  V   V16       1.0  0.003333384909002217  0.006666720052368368  0.9996836655481874  1.0000
  V   V17       1.0  0.0016667183964576527  0.008333386826626826  0.9993400603779646  1.0000
  V   V18       1.0  0.009999592588501248  0.004999843474117837  0.0  1.0000
  Re  Re7       1.0  0.006666645961515502  0.0033332634457407177  0.9998592350979502  1.0000
  Re  Re8       1.0  0.005000051882852332  5.3450001580158425e-08  0.9995118632571633  1.0000
  Re  Re9       1.0  0.008333385561188839  0.0016667201078453848  0.9991682577928532  1.0000
  V   V19       1.0  0.006666718535861398  0.003333386756019713  0.9995977644026754  1.0000
  V   V20       1.0  0.005000051882852332  5.3450001580158425e-08  0.9992541592324525  1.0000
  V   V21       1.0  0.008333192856818338  0.001666568806889563  0.9999248859778708  1.0000
  V   V22       1.0  0.004999948175326611  0.00999994617720665  0.9997674333841843  1.0000
  V   V23       1.0  0.008333385561188839  0.0016667201078453848  0.999425961817564  1.0000
  V   V24       1.0  0.006666718535861398  0.003333386756019713  0.9990823566473411  1.0000
  V   V25       1.0  0.008333385561188839  0.0016667201078453848  0.9996836655481874  1.0000
  V   V26       1.0  0.006666718535861398  0.003333386756019713  0.9993400603779646  1.0000
  V   V27       1.0  0.004999592482989342  0.009999843292556692  0.0  1.0000
  Re  Re10      1.0  0.006666645991872712  0.008333263768516092  0.9998592350979502  1.0000
  Re  Re11      1.0  0.00500005166587602  0.005000053278109911  0.9995118632571633  1.0000
  Re  Re12      1.0  0.008333385184035725  0.006666720052368368  0.9991682577928532  1.0000
  V   V28       1.0  0.006666718440134478  0.008333386826626826  0.9995977644026754  1.0000
  V   V29       1.0  0.00500005166587602  0.005000053278109911  0.9992541592324525  1.0000
  V   V30       1.0  0.008333192479665224  0.006666568751412546  0.9999248859778708  1.0000
  V   V31       1.0  0.004999948414623787  0.004999946358767797  0.9997674333841843  1.0000
  V   V32       1.0  0.008333385184035725  0.006666720052368368  0.999425961817564  1.0000
  V   V33       1.0  0.006666718440134478  0.008333386826626826  0.9990823566473411  1.0000
  V   V34       1.0  0.008333385184035725  0.006666720052368368  0.9996836655481874  1.0000
  V   V35       1.0  0.006666718440134478  0.008333386826626826  0.9993400603779646  1.0000
  V   V36       1.0  0.004999592763208548  0.004999843474117837  0.0  1.0000
