data_image0
_chemical_formula_structural       HNb6Pt6Nb6Pt6
_chemical_formula_sum              "H1 Nb12 Pt12"
_cell_length_a       5.46601740325063
_cell_length_b       5.814821191451147
_cell_length_c       114.7437973022461
_cell_angle_alpha    65.97317833498185
_cell_angle_beta     70.32922919761133
_cell_angle_gamma    75.27623891584369

_space_group_name_H-M_alt    "P 1"
_space_group_IT_number       1

loop_
  _space_group_symop_operation_xyz
  'x, y, z'

loop_
  _atom_site_type_symbol
  _atom_site_label
  _atom_site_symmetry_multiplicity
  _atom_site_fract_x
  _atom_site_fract_y
  _atom_site_fract_z
  _atom_site_occupancy
  H   H1        1.0  0.0008974580531135591  0.0028834622543623747  0.9999261126038871  1.0000
  Nb  Nb1       1.0  0.0012379441152454362  0.005364598079097775  0.9990384021215742  1.0000
  Nb  Nb2       1.0  0.004571277319373318  0.008697931233065215  0.9988217660216034  1.0000
  Nb  Nb3       1.0  0.007904610338408006  0.002031264571118705  0.9992550386432109  1.0000
  Nb  Nb4       1.0  0.00576920839823573  0.0013020688483574585  0.9990688656127182  1.0000
  Nb  Nb5       1.0  0.009102541589929541  0.0046354020908278065  0.9988522295111206  1.0000
  Nb  Nb6       1.0  0.0024358753170306904  0.007968735952818507  0.9986355935024356  1.0000
  Pt  Pt1       1.0  0.00792019100163792  0.007000104198367228  0.9992540257801563  1.0000
  Pt  Pt2       1.0  0.0012535243402931617  0.0003334371160319055  0.999037389921855  1.0000
  Pt  Pt3       1.0  0.00458685784724632  0.003666770690388157  0.9988207532888956  1.0000
  Pt  Pt4       1.0  0.005753628170079486  0.006333229833549055  0.9990698783314893  1.0000
  Pt  Pt5       1.0  0.00908696137420737  0.009666562987516496  0.9988532422315185  1.0000
  Pt  Pt6       1.0  0.0024202948347443304  0.0029998963255699848  0.9986366058431301  1.0000
  Nb  Nb7       1.0  0.0013292629007128612  0.005411919875760383  0.9996853603898364  1.0000
  Nb  Nb8       1.0  0.004571277319373318  0.008697931233065215  0.9994716746193419  1.0000
  Nb  Nb9       1.0  0.007952155508295495  0.0020270576739095446  0.9998727727204513  1.0000
  Nb  Nb10      1.0  0.005781438934381344  0.001041666389357556  0.9997191721347127  1.0000
  Nb  Nb11      1.0  0.009102541589929541  0.0046354020908278065  0.9995021381088591  1.0000
  Nb  Nb12      1.0  0.0024358753170306904  0.007968735952818507  0.9992855021001741  1.0000
  Pt  Pt7       1.0  0.00794085493943199  0.006901701001527789  0.999883690480045  1.0000
  Pt  Pt8       1.0  0.0013344434471519323  0.00036398601865475895  0.9996882333627551  1.0000
  Pt  Pt9       1.0  0.00458685784724632  0.003666770690388157  0.9994706624060927  1.0000
  Pt  Pt10      1.0  0.005635663542648805  0.006064866361006039  0.99972391572622  1.0000
  Pt  Pt11      1.0  0.00908696137420737  0.009666562987516496  0.999503150829257  1.0000
  Pt  Pt12      1.0  0.0024202948347443304  0.0029998963255699848  0.9992865144408687  1.0000
