data_image0
_chemical_formula_structural       COCa12Ga6Cu12
_chemical_formula_sum              "C1 O1 Ca12 Ga6 Cu12"
_cell_length_a       9.166231155395508
_cell_length_b       10.263110845124238
_cell_length_c       98.22447967529297
_cell_angle_alpha    94.5571231172882
_cell_angle_beta     90.0
_cell_angle_gamma    90.0

_space_group_name_H-M_alt    "P 1"
_space_group_IT_number       1

loop_
  _space_group_symop_operation_xyz
  'x, y, z'

loop_
  _atom_site_type_symbol
  _atom_site_label
  _atom_site_symmetry_multiplicity
  _atom_site_fract_x
  _atom_site_fract_y
  _atom_site_fract_z
  _atom_site_occupancy
  C   C1        1.0  0.005000008453423975  0.004694748732362134  6.798791925995577e-05  1.0000
  O   O1        1.0  0.005000008453423975  0.004694748732362134  0.00019015730471625268  1.0000
  Ca  Ca1       1.0  0.006960342029435603  0.005399774708509708  0.9996612992929471  1.0000
  Ca  Ca2       1.0  0.007003510576924077  0.002131736321594332  0.9999079800106163  1.0000
  Ca  Ca3       1.0  0.006960342029435603  0.008733107580611934  0.9994218438529505  1.0000
  Ca  Ca4       1.0  0.00803967438971481  0.0020664412902127497  0.9995415715043736  1.0000
  Ca  Ca5       1.0  0.007974063627231574  0.00877018983340216  0.9997882608721537  1.0000
  Ca  Ca6       1.0  0.007917522413278274  0.005669718346456767  2.3611299014685528e-05  1.0000
  Ca  Ca7       1.0  0.0019603423139258323  0.0020664412902127497  0.9995415715043736  1.0000
  Ca  Ca8       1.0  0.0020259616111159666  0.008770190561661803  0.9997882608781995  1.0000
  Ca  Ca9       1.0  0.0020825011994108095  0.0056697321833899935  2.3615661630088892e-05  1.0000
  Ca  Ca10      1.0  0.0030396742677904257  0.005399774708509708  0.9996612992929471  1.0000
  Ca  Ca11      1.0  0.0029965116133138566  0.002131722666726015  0.9999079814143088  1.0000
  Ca  Ca12      1.0  0.0030396742677904257  0.008733107580611934  0.9994218438529505  1.0000
  Ga  Ga1       1.0  0.00999999170914187  0.003854153582268404  0.9997752616020656  1.0000
  Ga  Ga2       1.0  2.8400000965828454e-08  0.0005594886117815631  4.64473207969116e-06  1.0000
  Ga  Ga3       1.0  8.200000562732629e-09  0.0070664409624959105  0.9995415715714373  1.0000
  Ga  Ga4       1.0  0.005000008453423975  0.0037331077262638627  0.9994218437843753  1.0000
  Ga  Ga5       1.0  0.005000008453423975  0.00039977458106427047  0.9996612992221047  1.0000
  Ga  Ga6       1.0  0.0049999397693541794  0.007039632268497329  0.9998966073204103  1.0000
  Cu  Cu1       1.0  1.1300000340619105e-08  0.0029863375432178404  2.676841763645227e-06  1.0000
  Cu  Cu2       1.0  8.200000562732629e-09  0.009600225218664328  0.9995464252269173  1.0000
  Cu  Cu3       1.0  1.6500000168086577e-08  0.006362864223039013  0.9997955906864525  1.0000
  Cu  Cu4       1.0  8.200000562732629e-09  0.004532657070457314  0.99953671761557  1.0000
  Cu  Cu5       1.0  1.1700000386976168e-08  0.0012723905794255115  0.9997652916085144  1.0000
  Cu  Cu6       1.0  1.1300000340619105e-08  0.008068577938463575  2.702767003736137e-06  1.0000
  Cu  Cu7       1.0  0.005000008453423975  0.0029335587462002324  0.9996661531802392  1.0000
  Cu  Cu8       1.0  0.005000013736813959  0.009483426208771182  0.9998883478041211  1.0000
  Cu  Cu9       1.0  0.005000008453423975  0.00626689198243228  0.9994266977432655  1.0000
  Cu  Cu10      1.0  0.005000008453423975  0.0011993237431928115  0.9994169898277522  1.0000
  Cu  Cu11      1.0  0.005000008453423975  0.007865990670819183  0.9996564454056549  1.0000
  Cu  Cu12      1.0  0.005000008453423975  0.004560234806639491  0.9998910928679646  1.0000
