data_image0
_chemical_formula_structural       HAs16Si8Zn8
_chemical_formula_sum              "H1 As16 Si8 Zn8"
_cell_length_a       8.101151466369629
_cell_length_b       6.893372766921009
_cell_length_c       109.34261322021484
_cell_angle_alpha    88.56079147729105
_cell_angle_beta     90.0
_cell_angle_gamma    90.0

_space_group_name_H-M_alt    "P 1"
_space_group_IT_number       1

loop_
  _space_group_symop_operation_xyz
  'x, y, z'

loop_
  _atom_site_type_symbol
  _atom_site_label
  _atom_site_symmetry_multiplicity
  _atom_site_fract_x
  _atom_site_fract_y
  _atom_site_fract_z
  _atom_site_occupancy
  H   H1        1.0  0.0025684752575967315  0.008292867533243056  6.426909723785789e-05  1.0000
  As  As1       1.0  0.006282671302503345  0.005815598556659371  0.9996040878746608  1.0000
  As  As2       1.0  0.0012826710449890184  0.002482265079169576  0.9993042458798425  1.0000
  As  As3       1.0  0.0014288253705439867  0.00927159981324242  0.9999077596964464  1.0000
  As  As4       1.0  0.006282671302503345  0.009148932034149166  0.9990044036731062  1.0000
  As  As5       1.0  0.0036518736690923826  0.007482265295404269  0.9993042455013244  1.0000
  As  As6       1.0  0.008651873466759698  0.004148931817914473  0.9990044037790652  1.0000
  As  As7       1.0  0.008651873466759698  0.0008155986107180444  0.9996040877076328  1.0000
  As  As8       1.0  0.003505687844017068  0.004263639727658458  0.9999075202891167  1.0000
  As  As9       1.0  0.008782671431260509  0.007395067033619824  0.9992964019531216  1.0000
  As  As10      1.0  0.0037826711737461815  0.004061733556130029  0.9989965599583033  1.0000
  As  As11      1.0  0.0037826711737461815  0.0007284002137869164  0.999596244159644  1.0000
  As  As12      1.0  0.008848126054999409  0.003971692889303752  0.9998979872785999  1.0000
  As  As13      1.0  0.006151873797849546  0.002395066817385131  0.9992964017865216  1.0000
  As  As14      1.0  0.0011518735403352194  0.009061733231777988  0.9989965598532002  1.0000
  As  As15      1.0  0.0011518735403352194  0.005728400294874926  0.9995962437813399  1.0000
  As  As16      1.0  0.006094533174643685  0.00897020973554324  0.9998980361290505  1.0000
  Si  Si1       1.0  0.003717272421419282  0.0007719994122524804  0.9993752845208247  1.0000
  Si  Si2       1.0  0.00871727198916309  0.00743866589421868  0.9990754423148372  1.0000
  Si  Si3       1.0  0.00871727198916309  0.004105332687022251  0.999675126515964  1.0000
  Si  Si4       1.0  0.00370812491472597  0.007440391447070245  0.9999953232168316  1.0000
  Si  Si5       1.0  0.006217272320252939  0.009105332632963578  0.9996751261378739  1.0000
  Si  Si6       1.0  0.001217272407623872  0.005771999155473782  0.9993752841430555  1.0000
  Si  Si7       1.0  0.0012267098478584756  0.002443122545303763  0.999996131496583  1.0000
  Si  Si8       1.0  0.006217272320252939  0.0024386659482773534  0.9990754424203684  1.0000
  Zn  Zn1       1.0  0.003717272421419282  0.004105332687022251  0.999675126515964  1.0000
  Zn  Zn2       1.0  0.00871727198916309  0.0007719994122524804  0.9993752845208247  1.0000
  Zn  Zn3       1.0  0.008846408066561243  0.007480870581633267  0.9999306751561795  1.0000
  Zn  Zn4       1.0  0.003717272421419282  0.00743866589421868  0.9990754423148372  1.0000
  Zn  Zn5       1.0  0.006217272320252939  0.005771999155473782  0.9993752841430555  1.0000
  Zn  Zn6       1.0  0.001217272407623872  0.0024386659482773534  0.9990754424203684  1.0000
  Zn  Zn7       1.0  0.001217272407623872  0.009105332632963578  0.9996751261378739  1.0000
  Zn  Zn8       1.0  0.00609485598724636  0.00248212371573891  0.9999304380590626  1.0000
