data_image0
_chemical_formula_structural       HSi4Pd12
_chemical_formula_sum              "H1 Si4 Pd12"
_cell_length_a       5.372193813323975
_cell_length_b       5.892986297607422
_cell_length_c       100.69677734375
_cell_angle_alpha    90.0
_cell_angle_beta     90.0
_cell_angle_gamma    90.0

_space_group_name_H-M_alt    "P 1"
_space_group_IT_number       1

loop_
  _space_group_symop_operation_xyz
  'x, y, z'

loop_
  _atom_site_type_symbol
  _atom_site_label
  _atom_site_symmetry_multiplicity
  _atom_site_fract_x
  _atom_site_fract_y
  _atom_site_fract_z
  _atom_site_occupancy
  H   H1        1.0  0.00877166731520808  0.004926414870694538  0.0  1.0000
  Si  Si1       1.0  0.00033650975141798906  0.0011100603077162433  0.9998684251948399  1.0000
  Si  Si2       1.0  0.005269228167446529  0.00396020614789204  0.999488603305327  1.0000
  Si  Si3       1.0  0.004598310045718619  0.006110422726267161  0.9998686726182647  1.0000
  Si  Si4       1.0  0.009663489886259978  0.008960206261680231  0.999488603305327  1.0000
  Pd  Pd1       1.0  0.001776663595266843  0.008167718287018606  6.935550881128562e-06  1.0000
  Pd  Pd2       1.0  0.006747296108210081  0.006797228653699384  0.9993375252599191  1.0000
  Pd  Pd3       1.0  0.0031854222783472877  0.003204230907433822  0.9997185801231016  1.0000
  Pd  Pd4       1.0  0.008185421945496426  0.001797228381872038  0.9996396810547736  1.0000
  Pd  Pd5       1.0  0.003992084609557506  6.803995040853956e-05  0.999488603305327  1.0000
  Pd  Pd6       1.0  0.00877166731520808  0.004926414870694538  0.9998776473406732  1.0000
  Pd  Pd7       1.0  0.0009406339364909015  0.005068039762934592  0.999488603305327  1.0000
  Pd  Pd8       1.0  0.006149796218716567  0.009931959946273362  0.9998774194506767  1.0000
  Pd  Pd9       1.0  0.0017472962677011197  0.008204231021222013  0.9997185801231016  1.0000
  Pd  Pd10      1.0  0.006747296108210081  0.006797228653699384  0.9996396810547736  1.0000
  Pd  Pd11      1.0  0.003156175435859328  0.0031607868919725454  7.280641447288667e-06  1.0000
  Pd  Pd12      1.0  0.008185421945496426  0.001797228381872038  0.9993375252599191  1.0000
