data_image0
_chemical_formula_structural       COCa6Ga12Ca6Ga12
_chemical_formula_sum              "C1 O1 Ca12 Ga24"
_cell_length_a       8.775346632639678
_cell_length_b       12.088893269425956
_cell_length_c       101.98420715332031
_cell_angle_alpha    100.893395152322
_cell_angle_beta     74.9096783244635
_cell_angle_gamma    66.82136026394537

_space_group_name_H-M_alt    "P 1"
_space_group_IT_number       1

loop_
  _space_group_symop_operation_xyz
  'x, y, z'

loop_
  _atom_site_type_symbol
  _atom_site_label
  _atom_site_symmetry_multiplicity
  _atom_site_fract_x
  _atom_site_fract_y
  _atom_site_fract_z
  _atom_site_occupancy
  C   C1        1.0  0.006739902161539321  0.0014907497135266785  3.0404979645119002e-05  1.0000
  O   O1        1.0  0.006739902161539321  0.0014907497135266785  0.0001480704952543599  1.0000
  Ca  Ca1       1.0  0.0026980382289616585  0.0025000001205069556  0.9995359401146723  1.0000
  Ca  Ca2       1.0  0.0026624254873704204  0.005930573243913203  0.9998436794582519  1.0000
  Ca  Ca3       1.0  0.002695323304999578  0.009305036565285075  0.9997168058495852  1.0000
  Ca  Ca4       1.0  0.007597140397043846  0.0009489244989077968  0.9998441778402666  1.0000
  Ca  Ca5       1.0  0.007819118248706097  0.004226348848636916  0.9996689569966943  1.0000
  Ca  Ca6       1.0  0.007698038109624342  0.00749999980881568  0.9995359401103633  1.0000
  Ga  Ga1       1.0  0.0006895864598384421  0.004224113320500099  0.999844673048325  1.0000
  Ga  Ga2       1.0  0.00022566344795756888  0.007931301796546452  0.9997257816584372  1.0000
  Ga  Ga3       1.0  0.0006217397765987923  0.000969877217385414  0.9995481751964813  1.0000
  Ga  Ga4       1.0  0.005621739843726033  0.00041432155123783375  0.9996477368704584  1.0000
  Ga  Ga5       1.0  0.005882502820656825  0.003998740774419043  0.9999371443530114  1.0000
  Ga  Ga6       1.0  0.005522128985214011  0.007081348372862522  0.9998147740295116  1.0000
  Ga  Ga7       1.0  0.00977433687276147  0.00903012315751827  0.9995237050315741  1.0000
  Ga  Ga8       1.0  0.009696226620864898  0.002439858605365705  0.9998374473986802  1.0000
  Ga  Ga9       1.0  0.009435574030952345  0.00601555582453461  0.9997215197072941  1.0000
  Ga  Ga10      1.0  0.00468034145159112  0.0029422731965180245  0.9997438932930549  1.0000
  Ga  Ga11      1.0  0.004774336494859967  0.006252345343919712  0.9995734858665272  1.0000
  Ga  Ga12      1.0  0.006127987140338012  0.009042904227796354  0.9998703379783772  1.0000
  Ca  Ca7       1.0  0.0026980382289616585  0.0025000001205069556  0.9990879129145304  1.0000
  Ca  Ca8       1.0  0.0026980382289616585  0.0058333333115784675  0.9993865978984621  1.0000
  Ca  Ca9       1.0  0.0026980382289616585  0.009166666502649978  0.9992372553900268  1.0000
  Ca  Ca10      1.0  0.007698038109624342  0.0008333331128598143  0.9993865976278369  1.0000
  Ca  Ca11      1.0  0.007698038109624342  0.004166666617744168  0.9992372554186565  1.0000
  Ca  Ca12      1.0  0.007698038109624342  0.00749999980881568  0.9990879129102214  1.0000
  Ga  Ga13      1.0  0.0006217397765987923  0.004303210800722978  0.9993988329890584  1.0000
  Ga  Ga14      1.0  0.0006217397765987923  0.007636544305607332  0.9992494904876531  1.0000
  Ga  Ga15      1.0  0.0006217397765987923  0.000969877217385414  0.9991001479963394  1.0000
  Ga  Ga16      1.0  0.005621739843726033  0.00041432155123783375  0.9991997096703165  1.0000
  Ga  Ga17      1.0  0.005621739843726033  0.0037476552130286086  0.999498394372568  1.0000
  Ga  Ga18      1.0  0.005621739843726033  0.00708098840410012  0.9993490521563577  1.0000
  Ga  Ga19      1.0  0.00977433687276147  0.00903012315751827  0.9990756778314321  1.0000
  Ga  Ga20      1.0  0.00977433687276147  0.002363456147749563  0.9993743625420178  1.0000
  Ga  Ga21      1.0  0.00977433687276147  0.005696789338821074  0.9992250203258075  1.0000
  Ga  Ga22      1.0  0.004774336494859967  0.0029190115252225157  0.9992748011607607  1.0000
  Ga  Ga23      1.0  0.004774336494859967  0.006252345343919712  0.9991254586663852  1.0000
  Ga  Ga24      1.0  0.004774336494859967  0.009585677907365538  0.9994241436362573  1.0000
