data_image0
_chemical_formula_structural       COV5Ir5V5Ir5
_chemical_formula_sum              "C1 O1 V10 Ir10"
_cell_length_a       6.159288277322914
_cell_length_b       4.6068508610591445
_cell_length_c       102.20521545410156
_cell_angle_alpha    75.84178259621108
_cell_angle_beta     76.73227320120601
_cell_angle_gamma    74.49057329748322

_space_group_name_H-M_alt    "P 1"
_space_group_IT_number       1

loop_
  _space_group_symop_operation_xyz
  'x, y, z'

loop_
  _atom_site_type_symbol
  _atom_site_label
  _atom_site_symmetry_multiplicity
  _atom_site_fract_x
  _atom_site_fract_y
  _atom_site_fract_z
  _atom_site_occupancy
  C   C1        1.0  0.008548847817489642  0.007161379039456012  0.9999037572880811  1.0000
  O   O1        1.0  0.008548847817489642  0.007161379039456012  2.116778088943249e-05  1.0000
  V   V1        1.0  0.004023289231527645  0.008051299786606143  0.9990870845060624  1.0000
  V   V2        1.0  0.008023289632366282  0.006051300125459115  0.999192118951128  1.0000
  V   V3        1.0  2.3289251980725683e-05  5.130039663240968e-05  0.9989820500097172  1.0000
  V   V4        1.0  0.0020232892594492778  0.004051300036467425  0.9987719810815664  1.0000
  V   V5        1.0  0.006023289660287916  0.0020513003753203974  0.9988770155266321  1.0000
  Ir  Ir1       1.0  0.004023289231527645  0.008051299786606143  0.9988244983293757  1.0000
  Ir  Ir2       1.0  0.008023289632366282  0.006051300125459115  0.9989295327744413  1.0000
  Ir  Ir3       1.0  2.3289251980725683e-05  5.130039663240968e-05  0.9992446361864039  1.0000
  Ir  Ir4       1.0  0.0020232892594492778  0.004051300036467425  0.9990345672582531  1.0000
  Ir  Ir5       1.0  0.006023289660287916  0.0020513003753203974  0.9991396017033188  1.0000
  V   V6        1.0  0.003896543427144021  0.008071139799263225  0.9996108448418737  1.0000
  V   V7        1.0  0.008178719359348557  0.0059286195192893455  0.9996998850559231  1.0000
  V   V8        1.0  0.009976710867155245  0.0001780732935393416  0.99950418392525  1.0000
  V   V9        1.0  0.0020232892594492778  0.004051300036467425  0.9992971534349399  1.0000
  V   V10       1.0  0.006023289660287916  0.0020513003753203974  0.9994021878800055  1.0000
  Ir  Ir6       1.0  0.004023289231527645  0.008051299786606143  0.9993496703911561  1.0000
  Ir  Ir7       1.0  0.008023289632366282  0.006051300125459115  0.9994547054194077  1.0000
  Ir  Ir8       1.0  0.00996028091427662  0.009948699302940416  0.9997525558588736  1.0000
  Ir  Ir9       1.0  0.0020332345763127407  0.00410611592238216  0.9995637789527364  1.0000
  Ir  Ir10      1.0  0.006030974303326212  0.0018559135587026424  0.9996553783940373  1.0000
