data_image0
_chemical_formula_structural       HNb4Pt8Nb4Pt8
_chemical_formula_sum              "H1 Nb8 Pt16"
_cell_length_a       4.927787444603881
_cell_length_b       9.066024344963816
_cell_length_c       104.49451446533203
_cell_angle_alpha    100.38304573475914
_cell_angle_beta     70.3154460303277
_cell_angle_gamma    79.6169546849952

_space_group_name_H-M_alt    "P 1"
_space_group_IT_number       1

loop_
  _space_group_symop_operation_xyz
  'x, y, z'

loop_
  _atom_site_type_symbol
  _atom_site_label
  _atom_site_symmetry_multiplicity
  _atom_site_fract_x
  _atom_site_fract_y
  _atom_site_fract_z
  _atom_site_occupancy
  H   H1        1.0  0.009729872983264174  0.0011444594661179695  5.456573039469862e-05  1.0000
  Nb  Nb1       1.0  0.0002701276646091867  9.935839505541264e-05  0.9995908027036209  1.0000
  Nb  Nb2       1.0  0.005270127737873484  9.935839505541264e-05  0.9993550108456388  1.0000
  Nb  Nb3       1.0  0.007770128208992478  0.005099358352061402  0.9994729066346979  1.0000
  Nb  Nb4       1.0  0.0027701277593704895  0.005099358352061402  0.9992371151614919  1.0000
  Pt  Pt1       1.0  0.008592294835712824  0.003455025098620711  0.9991983430977496  1.0000
  Pt  Pt2       1.0  0.003592294386090835  0.003455025098620711  0.9994341346765054  1.0000
  Pt  Pt3       1.0  0.009447961638515872  0.0017436914930146178  0.9993937828001651  1.0000
  Pt  Pt4       1.0  0.004447961188893882  0.0017436914930146178  0.9991579913269591  1.0000
  Pt  Pt5       1.0  0.00609229488763012  0.008455024994786118  0.9995520304641299  1.0000
  Pt  Pt6       1.0  0.001092294438008131  0.008455024994786118  0.9993162389909239  1.0000
  Pt  Pt7       1.0  0.0069479617985942  0.006743691172857958  0.999275887109483  1.0000
  Pt  Pt8       1.0  0.0019479613489722112  0.006743691172857958  0.9995116786882389  1.0000
  Nb  Nb5       1.0  0.009433419148229937  0.009900641336434821  4.7778094852881655e-05  1.0000
  Nb  Nb6       1.0  0.0051407714692647535  0.00015864109920133337  0.9998279374785861  1.0000
  Nb  Nb7       1.0  0.007224699019064736  0.0050813413197548325  0.9999396693434199  1.0000
  Nb  Nb8       1.0  0.0027701277593704895  0.005099358352061402  0.9997086984986584  1.0000
  Pt  Pt9       1.0  0.008592294835712824  0.003455025098620711  0.999669926434916  1.0000
  Pt  Pt10      1.0  0.00323963212120464  0.003489495154690283  0.9999042648665198  1.0000
  Pt  Pt11      1.0  0.009042804323811025  0.0018041779551020332  0.9998845675604537  1.0000
  Pt  Pt12      1.0  0.004447961188893882  0.0017436914930146178  0.9996295746641257  1.0000
  Pt  Pt13      1.0  0.005163497092560614  0.008610292321512213  2.7010720689305523e-05  1.0000
  Pt  Pt14      1.0  0.0010826440816969296  0.008496479225107082  0.9997861579518853  1.0000
  Pt  Pt15      1.0  0.0069479617985942  0.006743691172857958  0.9997474704466495  1.0000
  Pt  Pt16      1.0  0.0013287155514079552  0.00673163467878229  0.9999800146189914  1.0000
