data_image0
_chemical_formula_structural       COIr8W8Ir8W8
_chemical_formula_sum              "C1 O1 Ir16 W16"
_cell_length_a       5.287437469254198
_cell_length_b       10.123691255091789
_cell_length_c       107.0120620727539
_cell_angle_alpha    98.31696703153315
_cell_angle_beta     63.5069441462469
_cell_angle_gamma    81.68303382921006

_space_group_name_H-M_alt    "P 1"
_space_group_IT_number       1

loop_
  _space_group_symop_operation_xyz
  'x, y, z'

loop_
  _atom_site_type_symbol
  _atom_site_label
  _atom_site_symmetry_multiplicity
  _atom_site_fract_x
  _atom_site_fract_y
  _atom_site_fract_z
  _atom_site_occupancy
  C   C1        1.0  0.003457988877519199  0.006960061214814182  0.9999790697489442  1.0000
  O   O1        1.0  0.003457988877519199  0.006960061214814182  9.120631076369055e-05  1.0000
  Ir  Ir1       1.0  0.005426166619619578  0.006643710243854025  0.999303493416777  1.0000
  Ir  Ir2       1.0  0.007926166535421593  0.0016437104122499976  0.9991799690823027  1.0000
  Ir  Ir3       1.0  0.002926166236277073  0.0016437104122499976  0.999427017833004  1.0000
  Ir  Ir4       1.0  0.0004261663204750591  0.006643710243854025  0.9990564450023167  1.0000
  Ir  Ir5       1.0  0.007048271663261627  0.008399499274880817  0.9989762971468743  1.0000
  Ir  Ir6       1.0  0.0095482717704227  0.0033994990605586703  0.9993468699681066  1.0000
  Ir  Ir7       1.0  0.0045482718648893914  0.0033994990605586703  0.9990998215449707  1.0000
  Ir  Ir8       1.0  0.002048271757728318  0.008399499274880817  0.9992233458889  1.0000
  W   W1        1.0  0.006668048865224514  0.009159944870955044  0.9992421325765671  1.0000
  W   W2        1.0  0.009168049163744647  0.004159944273914776  0.9991186082231828  1.0000
  W   W3        1.0  0.004168049258211339  0.004159944273914776  0.9993656569652086  1.0000
  W   W4        1.0  0.0016680489596912044  0.009159944870955044  0.9989950838749363  1.0000
  W   W5        1.0  0.0008063883421828417  0.00588326541321604  0.9992847070438662  1.0000
  W   W6        1.0  0.003306388545023445  0.000883265007534832  0.9991611826952094  1.0000
  W   W7        1.0  0.008306388450556755  0.000883265007534832  0.9994082313968402  1.0000
  W   W8        1.0  0.005806388247716151  0.00588326541321604  0.9990376583018404  1.0000
  Ir  Ir9       1.0  0.005254691270731261  0.006539756348050546  0.9997929565019995  1.0000
  Ir  Ir10      1.0  0.007972578412408286  0.0016257877226819358  0.9996726740865115  1.0000
  Ir  Ir11      1.0  0.0030477258239610915  0.0016834725286280503  0.9999091982214154  1.0000
  Ir  Ir12      1.0  0.0004261663204750591  0.006643710243854025  0.9995505421674784  1.0000
  Ir  Ir13      1.0  0.007048271663261627  0.008399499274880817  0.999470394312036  1.0000
  Ir  Ir14      1.0  0.009573834282482757  0.00334531803900281  0.9998347599299726  1.0000
  Ir  Ir15      1.0  0.0045482718648893914  0.0033994990605586703  0.9995939187101324  1.0000
  Ir  Ir16      1.0  0.0018495278089187548  0.008437570542603912  0.9997266551239852  1.0000
  W   W9        1.0  0.006579715659515726  0.009103095921383404  0.9997307820078649  1.0000
  W   W10       1.0  0.009168049163744647  0.004159944273914776  0.9996127056668395  1.0000
  W   W11       1.0  0.004275378345074617  0.004134109269930099  0.9998433761531422  1.0000
  W   W12       1.0  0.0016680489596912044  0.009159944870955044  0.999489181318593  1.0000
  W   W13       1.0  0.0006224204941840632  0.005924402253081782  0.9997693872467881  1.0000
  W   W14       1.0  0.0032864172925569364  0.0008942377273994725  0.9996573208841006  1.0000
  W   W15       1.0  0.008490749692919953  0.0008400558447278417  0.9998799539401771  1.0000
  W   W16       1.0  0.005806388247716151  0.00588326541321604  0.9995317557454971  1.0000
