data_image0
_chemical_formula_structural       COTa12
_chemical_formula_sum              "C1 O1 Ta12"
_cell_length_a       4.697683334350586
_cell_length_b       4.697683347612258
_cell_length_c       104.52078247070312
_cell_angle_alpha    90.0
_cell_angle_beta     90.0
_cell_angle_gamma    119.99999990661514

_space_group_name_H-M_alt    "P 1"
_space_group_IT_number       1

loop_
  _space_group_symop_operation_xyz
  'x, y, z'

loop_
  _atom_site_type_symbol
  _atom_site_label
  _atom_site_symmetry_multiplicity
  _atom_site_fract_x
  _atom_site_fract_y
  _atom_site_fract_z
  _atom_site_occupancy
  C   C1        1.0  0.008333333112328698  0.005000000054941056  0.0001913493226298761  1.0000
  O   O1        1.0  0.008333333112328698  0.005000000054941056  0.0003061592583673802  1.0000
  Ta  Ta1       1.0  0.001666666639740065  0.0016666665705198191  0.999908256181975  1.0000
  Ta  Ta2       1.0  0.00499999973888424  0.00833333296705963  0.999541282050407  1.0000
  Ta  Ta3       1.0  0.008333333112328698  0.005000000054941056  0.999724769116191  1.0000
  Ta  Ta4       1.0  0.001666666639740065  0.0016666665705198191  0.9996330258684321  1.0000
  Ta  Ta5       1.0  0.00499999973888424  0.00833333296705963  0.999816512934216  1.0000
  Ta  Ta6       1.0  0.008333333112328698  0.005000000054941056  0.0  1.0000
  Ta  Ta7       1.0  0.001666666639740065  0.0016666665705198191  0.9993577952697561  1.0000
  Ta  Ta8       1.0  0.00499999973888424  0.00833333296705963  0.998990821138188  1.0000
  Ta  Ta9       1.0  0.008333333112328698  0.005000000054941056  0.9991743082039721  1.0000
  Ta  Ta10      1.0  0.001666666639740065  0.0016666665705198191  0.99908256467108  1.0000
  Ta  Ta11      1.0  0.00499999973888424  0.00833333296705963  0.9992660517368641  1.0000
  Ta  Ta12      1.0  0.008333333112328698  0.005000000054941056  0.9994495388026481  1.0000
