data_image0
_chemical_formula_structural       HNi8Sb16Ni8Sb16
_chemical_formula_sum              "H1 Ni16 Sb32"
_cell_length_a       6.557482205282124
_cell_length_b       13.445032231223513
_cell_length_c       109.34489440917969
_cell_angle_alpha    100.1542281182342
_cell_angle_beta     73.91528033508266
_cell_angle_gamma    79.84577132580331

_space_group_name_H-M_alt    "P 1"
_space_group_IT_number       1

loop_
  _space_group_symop_operation_xyz
  'x, y, z'

loop_
  _atom_site_type_symbol
  _atom_site_label
  _atom_site_symmetry_multiplicity
  _atom_site_fract_x
  _atom_site_fract_y
  _atom_site_fract_z
  _atom_site_occupancy
  H   H1        1.0  0.00875329527652284  0.0015630172048041902  0.00012134234958200088  1.0000
  Ni  Ni1       1.0  0.007520654294846508  0.0050497719694272344  0.9990817303119288  1.0000
  Ni  Ni2       1.0  2.0653949782186646e-05  4.977205057558386e-05  0.9995315100197437  1.0000
  Ni  Ni3       1.0  0.005020654065074572  4.977205057558386e-05  0.9992316567461861  1.0000
  Ni  Ni4       1.0  0.0025206541056487473  0.0050497719694272344  0.999381583314161  1.0000
  Ni  Ni5       1.0  0.006270654097771945  0.007549772363576362  0.9994565467715723  1.0000
  Ni  Ni6       1.0  0.008770654202105538  0.0025497721549091767  0.9993066201949071  1.0000
  Ni  Ni7       1.0  0.003770654012907776  0.0025497721549091767  0.999006766871898  1.0000
  Ni  Ni8       1.0  0.0012706539085741832  0.007549772363576362  0.9991566934485632  1.0000
  Sb  Sb1       1.0  0.007734194062036452  0.006839787482024018  0.9992018845851474  1.0000
  Sb  Sb2       1.0  0.00023419452847976856  0.0018397874182645999  0.9990519582236496  1.0000
  Sb  Sb3       1.0  0.005234194495961403  0.0018397874182645999  0.9993518112777892  1.0000
  Sb  Sb4       1.0  0.0027341944640816946  0.006839787482024018  0.9995017378501092  1.0000
  Sb  Sb5       1.0  0.009807113430034726  0.008259756665497636  0.9994113551403718  1.0000
  Sb  Sb6       1.0  0.0023071133066865303  0.003259756746645986  0.9992614287918149  1.0000
  Sb  Sb7       1.0  0.0073071132002627895  0.003259756746645986  0.9989615757944946  1.0000
  Sb  Sb8       1.0  0.004807113240836965  0.008259756665497636  0.9991115020899161  1.0000
  Sb  Sb9       1.0  0.008274209377558671  0.005759756850979579  0.9994693529626317  1.0000
  Sb  Sb10      1.0  0.000774209916455872  0.000759756642312393  0.9993194260516821  1.0000
  Sb  Sb11      1.0  0.005774209883937506  0.000759756642312393  0.9990195730531337  1.0000
  Sb  Sb12      1.0  0.0032742097796039137  0.005759756850979579  0.999169499629799  1.0000
  Sb  Sb13      1.0  0.004267097635499209  0.009339787876173147  0.9994437406001603  1.0000
  Sb  Sb14      1.0  0.006767097739832802  0.0043397876675059606  0.9992938140234952  1.0000
  Sb  Sb15      1.0  0.0017670978462565432  0.0043397876675059606  0.9989939606955741  1.0000
  Sb  Sb16      1.0  0.009267097824696969  0.009339787876173147  0.9991438873253746  1.0000
  Ni  Ni9       1.0  0.007520654294846508  0.0050497719694272344  0.9996814363646167  1.0000
  Ni  Ni10      1.0  0.0004558074121778574  0.009950228656574323  0.0001005891185843015  1.0000
  Ni  Ni11      1.0  0.005020654065074572  4.977205057558386e-05  0.9998313630714274  1.0000
  Ni  Ni12      1.0  0.002638087973601021  0.0051072632567839464  0.9999721568112749  1.0000
  Ni  Ni13      1.0  0.006423468240929957  0.007547175036749538  4.301451963737855e-05  1.0000
  Ni  Ni14      1.0  0.008850994894682544  0.002534285861783605  0.999894079216767  1.0000
  Ni  Ni15      1.0  0.003770654012907776  0.0025497721549091767  0.9996064729245859  1.0000
  Ni  Ni16      1.0  0.0012706539085741832  0.007549772363576362  0.9997564000463579  1.0000
  Sb  Sb17      1.0  0.007734194062036452  0.006839787482024018  0.9998015909103887  1.0000
  Sb  Sb18      1.0  0.00023419452847976856  0.0018397874182645999  0.9996516645488909  1.0000
  Sb  Sb19      1.0  0.005420823880876308  0.0018515319030146826  0.999941075216652  1.0000
  Sb  Sb20      1.0  0.0030398283437321175  0.006827832011564281  9.469060241138418e-05  1.0000
  Sb  Sb21      1.0  0.009979345479826755  0.008214012181415289  1.2249827532956157e-05  1.0000
  Sb  Sb22      1.0  0.0022917499069387243  0.003284095165479941  0.9998717200951958  1.0000
  Sb  Sb23      1.0  0.0073071132002627895  0.003259756746645986  0.9995612818471825  1.0000
  Sb  Sb24      1.0  0.004807113240836965  0.008259756665497636  0.9997112084151574  1.0000
  Sb  Sb25      1.0  0.008541781861163559  0.005815225805531383  6.19336576436006e-05  1.0000
  Sb  Sb26      1.0  0.0008054882085734753  0.0007809417956690486  0.9999128184553946  1.0000
  Sb  Sb27      1.0  0.005774209883937506  0.000759756642312393  0.9996192791058217  1.0000
  Sb  Sb28      1.0  0.0032742097796039137  0.005759756850979579  0.9997692056824868  1.0000
  Sb  Sb29      1.0  0.004438320150239421  0.009383882150597834  4.8291018895324117e-05  1.0000
  Sb  Sb30      1.0  0.0068247997248762505  0.004389523780955174  0.9999064345167904  1.0000
  Sb  Sb31      1.0  0.0017670978462565432  0.0043397876675059606  0.9995936672933688  1.0000
  Sb  Sb32      1.0  0.009267097824696969  0.009339787876173147  0.9997435936506159  1.0000
