data_image0
_chemical_formula_structural       COAl8Pd16Al8Pd16
_chemical_formula_sum              "C1 O1 Al16 Pd32"
_cell_length_a       7.900625228881836
_cell_length_b       6.900472177615288
_cell_length_c       111.40283203125
_cell_angle_alpha    73.89102395811582
_cell_angle_beta     90.0
_cell_angle_gamma    90.0

_space_group_name_H-M_alt    "P 1"
_space_group_IT_number       1

loop_
  _space_group_symop_operation_xyz
  'x, y, z'

loop_
  _atom_site_type_symbol
  _atom_site_label
  _atom_site_symmetry_multiplicity
  _atom_site_fract_x
  _atom_site_fract_y
  _atom_site_fract_z
  _atom_site_occupancy
  C   C1        1.0  0.00248709956732263  0.0008639546672828827  0.9999219550813699  1.0000
  O   O1        1.0  0.00248709956732263  0.0008639546672828827  2.9672489445640667e-05  1.0000
  Al  Al1       1.0  0.008979716492347188  0.0073109757526217825  0.9992854710225499  1.0000
  Al  Al2       1.0  0.008979716492347188  0.0023109758818642447  0.998975763047071  1.0000
  Al  Al3       1.0  0.0010739093631909156  0.0028433392067701  0.9986990302346456  1.0000
  Al  Al4       1.0  0.0010739093631909156  0.007843339498970448  0.9990087382028813  1.0000
  Al  Al5       1.0  0.0060739092783176  0.004810975887483482  0.9991306167660847  1.0000
  Al  Al6       1.0  0.0060739092783176  0.00981097617968383  0.9988209091088274  1.0000
  Al  Al7       1.0  0.003979716812979711  0.005343339071908401  0.9988538844911108  1.0000
  Al  Al8       1.0  0.003979716812979711  0.0003433390606699267  0.9991635926785765  1.0000
  Pd  Pd1       1.0  0.0029133498583815177  0.004030946217280394  0.9990823009809594  1.0000
  Pd  Pd2       1.0  0.0029133498583815177  0.009030946228518869  0.9987725927934938  1.0000
  Pd  Pd3       1.0  0.007140276468675002  0.006123369023073362  0.9989022008064443  1.0000
  Pd  Pd4       1.0  0.007140276468675002  0.001123368871353951  0.9992119089963244  1.0000
  Pd  Pd5       1.0  0.002140276317789109  0.006530946363380567  0.9992371546975588  1.0000
  Pd  Pd6       1.0  0.002140276317789109  0.0015309460711802202  0.998927446729323  1.0000
  Pd  Pd7       1.0  0.007913350245026618  0.003623368876973188  0.9987473465548079  1.0000
  Pd  Pd8       1.0  0.007913350245026618  0.008623368888211663  0.9990570545278724  1.0000
  Pd  Pd9       1.0  0.009357219794937621  0.004655909658521547  0.999121011828837  1.0000
  Pd  Pd10      1.0  0.009357219794937621  0.009655909950721894  0.9988113036365425  1.0000
  Pd  Pd11      1.0  0.0006964064142392948  0.005498405300870336  0.9988634894283586  1.0000
  Pd  Pd12      1.0  0.0006964064142392948  0.0004984052545116272  0.9991731976164279  1.0000
  Pd  Pd13      1.0  0.005696406447245584  0.007155910085583593  0.9992758660756446  1.0000
  Pd  Pd14      1.0  0.005696406447245584  0.00215590965290231  0.9989661581098231  1.0000
  Pd  Pd15      1.0  0.004357219644051728  0.0029984054357320346  0.9987086354394119  1.0000
  Pd  Pd16      1.0  0.004357219644051728  0.007998405166008637  0.9990183436848238  1.0000
  Al  Al9       1.0  0.009110387448116377  0.007326158370286637  0.9998806432082188  1.0000
  Al  Al10      1.0  0.008979716492347188  0.0023109758818642447  0.9995951792076011  1.0000
  Al  Al11      1.0  0.0010739093631909156  0.0028433392067701  0.9993184463951758  1.0000
  Al  Al12      1.0  0.0010739093631909156  0.007843339498970448  0.9996281543634115  1.0000
  Al  Al13      1.0  0.006006663679327159  0.004668758606873616  0.9997461712172961  1.0000
  Al  Al14      1.0  0.0060739092783176  0.00981097617968383  0.9994403252693576  1.0000
  Al  Al15      1.0  0.003979716812979711  0.005343339071908401  0.999473300651641  1.0000
  Al  Al16      1.0  0.0038956186742598077  0.00018902415887522682  0.9997801431568833  1.0000
  Pd  Pd17      1.0  0.002922899520873916  0.003954468114630573  0.9997076382124787  1.0000
  Pd  Pd18      1.0  0.0029133498583815177  0.009030946228518869  0.9993920089540239  1.0000
  Pd  Pd19      1.0  0.007140276468675002  0.006123369023073362  0.9995216169669745  1.0000
  Pd  Pd20      1.0  0.007098649408297951  0.0011322297766476286  0.9998263307821633  1.0000
  Pd  Pd21      1.0  0.002212323388816289  0.006724287466306152  0.9998484080283121  1.0000
  Pd  Pd22      1.0  0.002140276317789109  0.0015309460711802202  0.9995468628898532  1.0000
  Pd  Pd23      1.0  0.007913350245026618  0.003623368876973188  0.9993667627153381  1.0000
  Pd  Pd24      1.0  0.007878172142034082  0.008700637336608757  0.9996674210482055  1.0000
  Pd  Pd25      1.0  0.00931091385731216  0.00469438570118589  0.9997494722878103  1.0000
  Pd  Pd26      1.0  0.009357219794937621  0.009655909950721894  0.9994307203321097  1.0000
  Pd  Pd27      1.0  0.0006964064142392948  0.005498405300870336  0.9994829055888887  1.0000
  Pd  Pd28      1.0  0.0006427803889545611  0.0006231129561085587  0.9997925924272715  1.0000
  Pd  Pd29      1.0  0.00587899865346411  0.007081513067523202  0.9998782925654405  1.0000
  Pd  Pd30      1.0  0.005696406447245584  0.00215590965290231  0.9995855742703533  1.0000
  Pd  Pd31      1.0  0.004357219644051728  0.0029984054357320346  0.9993280513324235  1.0000
  Pd  Pd32      1.0  0.004358440876750849  0.00792273763836091  0.9996323124285927  1.0000
