data_image0
_chemical_formula_structural       COPt4W2Pt4W2
_chemical_formula_sum              "C1 O1 Pt8 W4"
_cell_length_a       5.6199568445872625
_cell_length_b       4.845183764595786
_cell_length_c       41.2436637878418
_cell_angle_alpha    91.37187584836752
_cell_angle_beta     92.80049616482765
_cell_angle_gamma    73.14345366593939

_space_group_name_H-M_alt    "P 1"
_space_group_IT_number       1

loop_
  _space_group_symop_operation_xyz
  'x, y, z'

loop_
  _atom_site_type_symbol
  _atom_site_label
  _atom_site_symmetry_multiplicity
  _atom_site_fract_x
  _atom_site_fract_y
  _atom_site_fract_z
  _atom_site_occupancy
  C   C1        1.0  0.0030640476321526586  0.006432303945677676  0.0004412784620803732  1.0000
  O   O1        1.0  0.0030640476321526586  0.006432303945677676  0.0007322324733258861  1.0000
  Pt  Pt1       1.0  0.0004228281534589248  0.006394109927941139  2.0798900703332092e-05  1.0000
  Pt  Pt2       1.0  0.003957293084108196  0.0018599427723636221  0.9997437487020423  1.0000
  Pt  Pt3       1.0  0.0010033416172633798  0.002842854840011744  0.9991753471757898  1.0000
  Pt  Pt4       1.0  0.004577172109386324  0.008140057147293885  0.9988912417596802  1.0000
  W   W1        1.0  0.0025145627524009694  0.007319454189096148  0.9994883648037429  1.0000
  W   W2        1.0  0.003102756830427106  0.0036164558329678286  0.998597525390786  1.0000
  Pt  Pt5       1.0  0.0054228278747214176  0.006394109927941139  2.0798718199736007e-05  1.0000
  Pt  Pt6       1.0  0.008957292805370689  0.0018599427723636221  0.9997437485195387  1.0000
  Pt  Pt7       1.0  0.006003341338525873  0.002842854840011744  0.999175347354582  1.0000
  Pt  Pt8       1.0  0.009577171498818449  0.008140057147293885  0.9988912419362632  1.0000
  W   W3        1.0  0.0075145628054938286  0.007319454189096148  0.9994883646234485  1.0000
  W   W4        1.0  0.008102756883519965  0.0036164558329678286  0.9985975255717873  1.0000
