data_image0
_chemical_formula_structural       HNb6Rh6
_chemical_formula_sum              "H1 Nb6 Rh6"
_cell_length_a       4.846496784726945
_cell_length_b       5.6426539349943035
_cell_length_c       99.50589752197266
_cell_angle_alpha    86.04617483334717
_cell_angle_beta     88.74620548155276
_cell_angle_gamma    75.63122892770788

_space_group_name_H-M_alt    "P 1"
_space_group_IT_number       1

loop_
  _space_group_symop_operation_xyz
  'x, y, z'

loop_
  _atom_site_type_symbol
  _atom_site_label
  _atom_site_symmetry_multiplicity
  _atom_site_fract_x
  _atom_site_fract_y
  _atom_site_fract_z
  _atom_site_occupancy
  H   H1        1.0  0.008790875107837437  0.008547349610749521  5.6865388904018485e-05  1.0000
  Nb  Nb1       1.0  0.006802175175572973  0.004361494185830496  0.9997500938598154  1.0000
  Nb  Nb2       1.0  0.006409040988960028  0.0067680203192684455  0.9999812267429057  1.0000
  Nb  Nb3       1.0  0.0012091252577152716  0.0007432408435436  0.9998840355153551  1.0000
  Nb  Nb4       1.0  0.003061013634976607  0.005633155942244059  0.9993864850000066  1.0000
  Nb  Nb5       1.0  0.002227680213779473  0.008133156283739777  0.9996335886008323  1.0000
  Nb  Nb6       1.0  0.007644347219464463  0.0018831559422440587  0.9995100368913723  1.0000
  Rh  Rh1       1.0  0.0014431569713784463  0.00581995034379057  0.9998804366262191  1.0000
  Rh  Rh2       1.0  0.006720231297124183  0.00936684439925166  0.999751856062754  1.0000
  Rh  Rh3       1.0  0.00589097946330959  0.0018337917116530362  0.9999865515357037  1.0000
  Rh  Rh4       1.0  0.007644347275117534  0.006883156283739777  0.9995100368959677  1.0000
  Rh  Rh5       1.0  0.00306101386562872  0.0006331559422440585  0.9993864849937708  1.0000
  Rh  Rh6       1.0  0.002227680542546592  0.0031331559422440587  0.9996335885958271  1.0000
