data_image0
_chemical_formula_structural       COAs3Au3Ca6
_chemical_formula_sum              "C1 O1 As3 Au3 Ca6"
_cell_length_a       5.212230205535889
_cell_length_b       5.212230098714137
_cell_length_c       108.30191040039062
_cell_angle_alpha    90.0
_cell_angle_beta     90.0
_cell_angle_gamma    120.00000067795072

_space_group_name_H-M_alt    "P 1"
_space_group_IT_number       1

loop_
  _space_group_symop_operation_xyz
  'x, y, z'

loop_
  _atom_site_type_symbol
  _atom_site_label
  _atom_site_symmetry_multiplicity
  _atom_site_fract_x
  _atom_site_fract_y
  _atom_site_fract_z
  _atom_site_occupancy
  C   C1        1.0  0.00666664990343604  0.0033333147588350525  0.00013421265280005816  1.0000
  O   O1        1.0  0.00666664990343604  0.0033333147588350525  0.0002450136965645365  1.0000
  As  As1       1.0  4.9249998362976e-08  1.5300000583453018e-08  0.9993237276130884  1.0000
  As  As2       1.0  0.0066667157802423075  0.0033333485956728564  0.9989307734499535  1.0000
  As  As3       1.0  0.0033333825117499443  0.006666681923504265  0.9997166815010453  1.0000
  Au  Au1       1.0  0.0033333825117499443  0.006666681923504265  0.9991272503939319  1.0000
  Au  Au2       1.0  0.009999950575237697  0.009999984715652777  0.9999485691985149  1.0000
  Au  Au3       1.0  0.0066667157802423075  0.0033333485956728564  0.9995202042818887  1.0000
  Ca  Ca1       1.0  0.006666735084583467  0.0033333300266765007  0.9998064550795092  1.0000
  Ca  Ca2       1.0  0.0033333825117499443  0.006666681923504265  0.9994219662226668  1.0000
  Ca  Ca3       1.0  4.9249998362976e-08  1.5300000583453018e-08  0.9990290117843535  1.0000
  Ca  Ca4       1.0  0.0033333490427552227  0.006666644785511553  0.0  1.0000
  Ca  Ca5       1.0  4.9249998362976e-08  1.5300000583453018e-08  0.999618442891467  1.0000
  Ca  Ca6       1.0  0.0066667157802423075  0.0033333485956728564  0.9992254890035102  1.0000
