data_image0
_chemical_formula_structural       HIn12Pd24
_chemical_formula_sum              "H1 In12 Pd24"
_cell_length_a       8.445414543151855
_cell_length_b       10.359736690695403
_cell_length_c       98.76659393310547
_cell_angle_alpha    92.98868484467724
_cell_angle_beta     90.0
_cell_angle_gamma    90.0

_space_group_name_H-M_alt    "P 1"
_space_group_IT_number       1

loop_
  _space_group_symop_operation_xyz
  'x, y, z'

loop_
  _atom_site_type_symbol
  _atom_site_label
  _atom_site_symmetry_multiplicity
  _atom_site_fract_x
  _atom_site_fract_y
  _atom_site_fract_z
  _atom_site_occupancy
  H   H1        1.0  0.00033133204137814586  0.00650947516988078  4.7592153632644646e-05  1.0000
  In  In1       1.0  0.0013126034719719898  0.0030326841756684706  0.999596582072907  1.0000
  In  In2       1.0  0.0013872458912995633  0.009820395051167954  0.9998664600266349  1.0000
  In  In3       1.0  0.0013126034719719898  0.0063660174177808  0.9993538668838315  1.0000
  In  In4       1.0  0.009228644255893322  0.003474774889990926  1.9003160633205357e-05  1.0000
  In  In5       1.0  0.009308487269270417  0.0001796051027674901  0.999545163581304  1.0000
  In  In6       1.0  0.009304777600402183  0.006763636812286577  0.999785725646513  1.0000
  In  In7       1.0  0.004308487057541398  0.0013660175546123061  0.9993538668664752  1.0000
  In  In8       1.0  0.004308487057541398  0.00803268421887842  0.999596582091248  1.0000
  In  In9       1.0  0.004233842432703201  0.00482039608820674  0.9998664603159466  1.0000
  In  In10      1.0  0.0063126032425988845  0.0051796050784618936  0.9995451635992757  1.0000
  In  In11      1.0  0.006316311588160746  0.0017636364089937166  0.9997857256262027  1.0000
  In  In12      1.0  0.006392448461486604  0.008474774573117964  1.9002875259995376e-05  1.0000
  Pd  Pd1       1.0  0.008000524191649656  0.002663446876328562  0.9995428104759664  1.0000
  Pd  Pd2       1.0  0.008021863830235558  0.009296068241438485  0.9997785647328085  1.0000
  Pd  Pd3       1.0  0.0076008265590398185  0.0058949429097473905  1.1530639178923036e-05  1.0000
  Pd  Pd4       1.0  0.002620565887939565  0.0038821759367870935  0.9993562199907692  1.0000
  Pd  Pd5       1.0  0.002620565887939565  0.0005488425146333086  0.99959893517886  1.0000
  Pd  Pd6       1.0  0.002540530333485063  0.0072519718946818445  0.9998396612579759  1.0000
  Pd  Pd7       1.0  0.008020268804952855  0.0008949435867032639  1.1530323031457592e-05  1.0000
  Pd  Pd8       1.0  0.007620565879117522  0.0076634465594556  0.9995428104923382  1.0000
  Pd  Pd9       1.0  0.0075992262405316195  0.004296068198228535  0.9997785644127225  1.0000
  Pd  Pd10      1.0  0.003000524641573823  0.005548842377801803  0.9995989351962163  1.0000
  Pd  Pd11      1.0  0.0030805586521708886  0.0022519727516791734  0.9998396609428131  1.0000
  Pd  Pd12      1.0  0.003000524641573823  0.008882175979997043  0.9993562200091102  1.0000
  Pd  Pd13      1.0  0.00958840891315937  0.005241600553331632  0.999554191995435  1.0000
  Pd  Pd14      1.0  0.009668668326942128  0.0018668458936628727  0.9997889804255954  1.0000
  Pd  Pd15      1.0  0.009598328417738307  0.008258511657145575  1.4155766374811411e-05  1.0000
  Pd  Pd16      1.0  0.0010326817178075058  0.0013040219897218395  0.9993448384698235  1.0000
  Pd  Pd17      1.0  0.0010326817178075058  0.007970688744008681  0.9995875539968336  1.0000
  Pd  Pd18      1.0  0.0010643357576494306  0.004585859324559586  0.9998310641850285  1.0000
  Pd  Pd19      1.0  0.006022764299641619  0.003258513054267272  1.4155454165853425e-05  1.0000
  Pd  Pd20      1.0  0.006032681598709932  0.00024160069016313865  0.9995541919780787  1.0000
  Pd  Pd21      1.0  0.00595242174382505  0.006866844496541177  0.9997889801343144  1.0000
  Pd  Pd22      1.0  0.004588408701430351  0.002970688700798732  0.9995875539784926  1.0000
  Pd  Pd23      1.0  0.004556752566353334  0.009585858647603713  0.999831064501176  1.0000
  Pd  Pd24      1.0  0.004588408701430351  0.006304021942911062  0.9993448384876722  1.0000
