data_image0
_chemical_formula_structural       COAu3Ca6Pd3
_chemical_formula_sum              "C1 O1 Au3 Ca6 Pd3"
_cell_length_a       5.165112210297442
_cell_length_b       5.165112018585205
_cell_length_c       107.9556655883789
_cell_angle_alpha    90.0
_cell_angle_beta     90.0
_cell_angle_gamma    120.00000182607002

_space_group_name_H-M_alt    "P 1"
_space_group_IT_number       1

loop_
  _space_group_symop_operation_xyz
  'x, y, z'

loop_
  _atom_site_type_symbol
  _atom_site_label
  _atom_site_symmetry_multiplicity
  _atom_site_fract_x
  _atom_site_fract_y
  _atom_site_fract_z
  _atom_site_occupancy
  C   C1        1.0  0.0033333208355217554  0.006666684733196857  9.601337794828468e-05  1.0000
  O   O1        1.0  0.0033333208355217554  0.006666684733196857  0.00020716979246945136  1.0000
  Au  Au1       1.0  0.003333336450846084  0.00666667775542027  0.9996304827432435  1.0000
  Au  Au2       1.0  0.006666707880018664  0.0033333122912850783  0.0  1.0000
  Au  Au3       1.0  3.100000040169263e-09  1.0550000805437212e-08  0.9992398319315631  1.0000
  Ca  Ca1       1.0  0.006666669986831627  0.0033333442446925182  0.9991421693666733  1.0000
  Ca  Ca2       1.0  3.100000040169263e-09  1.0550000805437212e-08  0.9995328201783538  1.0000
  Ca  Ca3       1.0  0.0033333208355217554  0.006666684733196857  0.999935572389225  1.0000
  Ca  Ca4       1.0  3.100000040169263e-09  1.0550000805437212e-08  0.9989468439608331  1.0000
  Ca  Ca5       1.0  0.003333336450846084  0.00666667775542027  0.9993374950485743  1.0000
  Ca  Ca6       1.0  0.006666669986831627  0.0033333442446925182  0.9997281453081333  1.0000
  Pd  Pd1       1.0  0.009999997068483113  0.00999999034094423  0.999817974925203  1.0000
  Pd  Pd2       1.0  0.003333336450846084  0.00666667775542027  0.9990445068017836  1.0000
  Pd  Pd3       1.0  0.006666669986831627  0.0033333442446925182  0.999435157613464  1.0000
