data_image0
_chemical_formula_structural       COCa2Al4Si4Ca2Al4Si4
_chemical_formula_sum              "C1 O1 Ca4 Al8 Si8"
_cell_length_a       7.247246265411377
_cell_length_b       8.289684337143335
_cell_length_c       99.28939819335938
_cell_angle_alpha    104.61802980100937
_cell_angle_beta     90.0
_cell_angle_gamma    64.07945124382819

_space_group_name_H-M_alt    "P 1"
_space_group_IT_number       1

loop_
  _space_group_symop_operation_xyz
  'x, y, z'

loop_
  _atom_site_type_symbol
  _atom_site_label
  _atom_site_symmetry_multiplicity
  _atom_site_fract_x
  _atom_site_fract_y
  _atom_site_fract_z
  _atom_site_occupancy
  C   C1        1.0  0.004181817109938815  0.009026445703394134  0.00016214897209154128  1.0000
  O   O1        1.0  0.004181817109938815  0.009026445703394134  0.00028300744170056414  1.0000
  Ca  Ca1       1.0  8.54141372474861e-05  0.0009735547911449887  0.9996042047453964  1.0000
  Ca  Ca2       1.0  0.005085414186080183  0.0009735547911449887  0.9993934975371923  1.0000
  Al  Al1       1.0  0.0065684120611581845  0.004674224487694951  0.9994714733329892  1.0000
  Al  Al2       1.0  0.001568412462100325  0.004674224487694951  0.9996821805411933  1.0000
  Al  Al3       1.0  0.00860241481289089  0.0072728854589922745  0.9995262290053024  1.0000
  Al  Al4       1.0  0.0036024154708472235  0.0072728854589922745  0.9993155217970984  1.0000
  Si  Si1       1.0  0.004737985080452998  0.008335078449105323  0.9995486101823556  1.0000
  Si  Si2       1.0  0.009737985450553434  0.008335078449105323  0.9993379029741516  1.0000
  Si  Si3       1.0  0.00043284233846616543  0.0036120314975819014  0.999449092155936  1.0000
  Si  Si4       1.0  0.005432842451552411  0.0036120314975819014  0.9996597993641401  1.0000
  Ca  Ca3       1.0  0.00991458544177175  0.0009839494829223876  2.073252958145514e-05  1.0000
  Ca  Ca4       1.0  0.005010163062453372  0.0010568139010970065  0.9998235092431147  1.0000
  Al  Al5       1.0  0.006444001914536693  0.004772411846683627  0.9998994808817787  1.0000
  Al  Al6       1.0  0.001977988183747667  0.005684363851526487  2.7063243833706283e-05  1.0000
  Al  Al7       1.0  0.008321187460918658  0.007326427387747324  0.9999387457736517  1.0000
  Al  Al8       1.0  0.0036024154708472235  0.0072728854589922745  0.9997369362135065  1.0000
  Si  Si5       1.0  0.0045213944803449944  0.008347290962581775  0.9999804022898171  1.0000
  Si  Si6       1.0  0.009737985450553434  0.008335078449105323  0.9997593173905598  1.0000
  Si  Si7       1.0  0.0003676612466887615  0.0036974506372912234  0.9998756672638863  1.0000
  Si  Si8       1.0  0.005297593317454267  0.003896888634703878  9.535135911285642e-05  1.0000
