data_image0
_chemical_formula_structural       COCu6Au6Se24
_chemical_formula_sum              "C1 O1 Cu6 Au6 Se24"
_cell_length_a       8.845516470186645
_cell_length_b       9.19826550909019
_cell_length_c       106.93858337402344
_cell_angle_alpha    115.41023860931965
_cell_angle_beta     109.00789866440934
_cell_angle_gamma    77.21515083790112

_space_group_name_H-M_alt    "P 1"
_space_group_IT_number       1

loop_
  _space_group_symop_operation_xyz
  'x, y, z'

loop_
  _atom_site_type_symbol
  _atom_site_label
  _atom_site_symmetry_multiplicity
  _atom_site_fract_x
  _atom_site_fract_y
  _atom_site_fract_z
  _atom_site_occupancy
  C   C1        1.0  0.006635005358776615  0.009381023013348621  0.0004601904665634258  1.0000
  O   O1        1.0  0.006635005358776615  0.009381023013348621  0.0005724046360435314  1.0000
  Cu  Cu1       1.0  0.008036300817442967  0.0018936673595507303  0.9997139542672406  1.0000
  Cu  Cu2       1.0  0.004702967686845192  0.008560334518691091  0.9993301558874166  1.0000
  Cu  Cu3       1.0  0.0013862302547058604  0.004988524906465552  7.339081559252529e-05  1.0000
  Cu  Cu4       1.0  0.0022321566062441637  0.007906727034044164  0.9996213653202164  1.0000
  Cu  Cu5       1.0  0.008898823520806266  0.0045733939049072405  0.9992375669198216  1.0000
  Cu  Cu6       1.0  0.005565490128877136  0.001240060437945374  5.163731383029286e-06  1.0000
  Au  Au1       1.0  0.00013422870961637466  0.004900197196797447  0.999667659988749  1.0000
  Au  Au2       1.0  0.006800895923938576  0.0015668638424438947  0.999283861309431  1.0000
  Au  Au3       1.0  0.0034296654972046994  0.00825037067413989  4.618326978546754e-05  1.0000
  Au  Au4       1.0  0.0068008956038257285  0.006566864211799166  0.9998595591035658  1.0000
  Au  Au5       1.0  0.0034675622225772036  0.0032335306322289854  0.9994757605113652  1.0000
  Au  Au6       1.0  0.00021544647885289353  0.009809894030999725  0.0002589850440142334  1.0000
  Se  Se1       1.0  0.007520359367249654  0.004194964205186085  0.9999392164882228  1.0000
  Se  Se2       1.0  0.004187025975320524  0.0008616307382242188  0.9995554176212043  1.0000
  Se  Se3       1.0  0.00043690909678036115  0.007176417972543548  0.00029321713467701777  1.0000
  Se  Se4       1.0  0.009451608902251225  0.007253675384037233  0.9995858816735781  1.0000
  Se  Se5       1.0  0.006118275966440922  0.003920341804467053  0.9992020830933778  1.0000
  Se  Se6       1.0  0.0027849423624732856  0.0005870082248968717  0.9999696801737569  1.0000
  Se  Se7       1.0  0.0027480982364341674  0.005605430638842066  0.9993961033993946  1.0000
  Se  Se8       1.0  0.009662064620739515  0.0026526868116803267  0.00026699676252384303  1.0000
  Se  Se9       1.0  0.006081431840401804  0.008938764218412247  0.9997799019975953  1.0000
  Se  Se10      1.0  0.0008168484787134851  0.002546719459990918  0.9997494379293528  1.0000
  Se  Se11      1.0  0.0074835157293711785  0.009213386168698021  0.9993656394317005  1.0000
  Se  Se12      1.0  0.004037276596572051  0.006052175298591846  0.00014115956191363094  1.0000
  Se  Se13      1.0  0.0015906773561717863  0.00019010680624309288  0.9995475059150216  1.0000
  Se  Se14      1.0  0.007984907817351367  0.006233375139064962  0.00023343055538744208  1.0000
  Se  Se15      1.0  0.004924010858125397  0.0035234402872809985  0.9999313045068374  1.0000
  Se  Se16      1.0  0.008677780794964283  0.009610288136317334  0.999787813990981  1.0000
  Se  Se17      1.0  0.005344446968277536  0.006276954556747153  0.99940401538678  1.0000
  Se  Se18      1.0  0.002212201400175434  0.0029415350207605767  0.00016816533812061098  1.0000
  Se  Se19      1.0  0.003736019585728073  0.006671386798814512  0.9997945195930236  1.0000
  Se  Se20      1.0  0.0004026860931199922  0.0033380532192443307  0.9994107209978229  1.0000
  Se  Se21      1.0  0.007396196646071068  0.001357460573973335  0.00023673240554895493  1.0000
  Se  Se22      1.0  0.006532438240674859  0.00312900804521364  0.9995408003005939  1.0000
  Se  Se23      1.0  0.003230426003275632  0.009274487440104628  0.00030017885630331093  1.0000
  Se  Se24      1.0  0.009865771664645806  0.0064623411743505626  0.9999245985986344  1.0000
