data_image0
_chemical_formula_structural       CONi10Si20Ni10Si20
_chemical_formula_sum              "C1 O1 Ni20 Si40"
_cell_length_a       11.617841470396977
_cell_length_b       7.745227336883545
_cell_length_c       106.53416442871094
_cell_angle_alpha    90.0
_cell_angle_beta     87.975131749119
_cell_angle_gamma    90.0

_space_group_name_H-M_alt    "P 1"
_space_group_IT_number       1

loop_
  _space_group_symop_operation_xyz
  'x, y, z'

loop_
  _atom_site_type_symbol
  _atom_site_label
  _atom_site_symmetry_multiplicity
  _atom_site_fract_x
  _atom_site_fract_y
  _atom_site_fract_z
  _atom_site_occupancy
  C   C1        1.0  0.0024472902506188507  0.0037500001827719515  1.818872153841034e-05  1.0000
  O   O1        1.0  0.0024472902506188507  0.0037500001827719515  0.00013082887207645748  1.0000
  Ni  Ni1       1.0  0.0021249999512303625  0.0012499999807608472  0.9992982380815735  1.0000
  Ni  Ni2       1.0  0.007624999994866354  0.0012499999807608472  0.9994697048651343  1.0000
  Ni  Ni3       1.0  0.004124999792087335  0.0012499999807608472  0.9999841055975548  1.0000
  Ni  Ni4       1.0  0.0031249998716588487  0.0012499999807608472  0.9996411715598199  1.0000
  Ni  Ni5       1.0  0.008624999594441962  0.0012499999807608472  0.9998126389041055  1.0000
  Ni  Ni6       1.0  0.0003750000102672921  0.0037500001827719515  0.9995554384471655  1.0000
  Ni  Ni7       1.0  0.005874999733050405  0.0037500001827719515  0.9997269052319627  1.0000
  Ni  Ni8       1.0  0.004874999812621919  0.0037500001827719515  0.9993839711942278  1.0000
  Ni  Ni9       1.0  0.0013749999306957783  0.0037500001827719515  0.999898371925412  1.0000
  Ni  Ni10      1.0  0.009374999614976546  0.0037500001827719515  0.9992125045007786  1.0000
  Si  Si1       1.0  0.0015000000410691685  0.0012499999807608472  0.9995125716336221  1.0000
  Si  Si2       1.0  0.006999999763852282  0.0012499999807608472  0.9996840384184192  1.0000
  Si  Si3       1.0  0.006000000164276674  0.0012499999807608472  0.9993411049389365  1.0000
  Si  Si4       1.0  0.0024999999614976546  0.0012499999807608472  0.9998555051118685  1.0000
  Si  Si5       1.0  0.0005000000003208528  0.0012499999807608472  0.999169637876095  1.0000
  Si  Si6       1.0  0.009249999825456033  0.0012499999807608472  0.9995983047913322  1.0000
  Si  Si7       1.0  0.004750000023101407  0.0012499999807608472  0.99976977204427  1.0000
  Si  Si8       1.0  0.0037499997818200427  0.0012499999807608472  0.9994268380077713  1.0000
  Si  Si9       1.0  0.0002500000001604264  0.0012499999807608472  0.9999412387385692  1.0000
  Si  Si10      1.0  0.00824999958417467  0.0012499999807608472  0.9992553713143221  1.0000
  Si  Si11      1.0  0.009749999625243838  0.0037500001827719515  0.9997697720905621  1.0000
  Si  Si12      1.0  0.005249999822889211  0.0037500001827719515  0.9999412387840113  1.0000
  Si  Si13      1.0  0.004249999902460725  0.0037500001827719515  0.9995983053057649  1.0000
  Si  Si14      1.0  0.003249999982032239  0.0037500001827719515  0.99925537126803  1.0000
  Si  Si15      1.0  0.00875000002566823  0.0037500001827719515  0.9994268380515908  1.0000
  Si  Si16      1.0  0.0020000000012834114  0.0037500001827719515  0.9996840383727452  1.0000
  Si  Si17      1.0  0.007499999563640085  0.0037500001827719515  0.9998555051581606  1.0000
  Si  Si18      1.0  0.006499999964064478  0.0037500001827719515  0.9995125716786779  1.0000
  Si  Si19      1.0  0.005499999722783113  0.0037500001827719515  0.9991696379219235  1.0000
  Si  Si20      1.0  0.0010000000006417057  0.0037500001827719515  0.999341104894808  1.0000
  Ni  Ni11      1.0  0.0021249999512303625  0.006249999903804236  0.9992982380815735  1.0000
  Ni  Ni12      1.0  0.007624999994866354  0.006249999903804236  0.9994697048651343  1.0000
  Ni  Ni13      1.0  0.004124999792087335  0.006249999903804236  0.9999841055975548  1.0000
  Ni  Ni14      1.0  0.0031249998716588487  0.006249999903804236  0.9996411715598199  1.0000
  Ni  Ni15      1.0  0.008624999594441962  0.006249999903804236  0.9998126389041055  1.0000
  Ni  Ni16      1.0  0.0003750000102672921  0.00875000034630475  0.9995554384471655  1.0000
  Ni  Ni17      1.0  0.005874999733050405  0.00875000034630475  0.9997269052319627  1.0000
  Ni  Ni18      1.0  0.004874999812621919  0.00875000034630475  0.9993839711942278  1.0000
  Ni  Ni19      1.0  0.0013749999306957783  0.00875000034630475  0.999898371925412  1.0000
  Ni  Ni20      1.0  0.009374999614976546  0.00875000034630475  0.9992125045007786  1.0000
  Si  Si21      1.0  0.0015000000410691685  0.006249999903804236  0.9995125716336221  1.0000
  Si  Si22      1.0  0.006999999763852282  0.006249999903804236  0.9996840384184192  1.0000
  Si  Si23      1.0  0.006000000164276674  0.006249999903804236  0.9993411049389365  1.0000
  Si  Si24      1.0  0.0024999999614976546  0.006249999903804236  0.9998555051118685  1.0000
  Si  Si25      1.0  0.0005000000003208528  0.006249999903804236  0.999169637876095  1.0000
  Si  Si26      1.0  0.009249999825456033  0.006249999903804236  0.9995983047913322  1.0000
  Si  Si27      1.0  0.004750000023101407  0.006249999903804236  0.99976977204427  1.0000
  Si  Si28      1.0  0.0037499997818200427  0.006249999903804236  0.9994268380077713  1.0000
  Si  Si29      1.0  0.0002500000001604264  0.006249999903804236  0.9999412387385692  1.0000
  Si  Si30      1.0  0.00824999958417467  0.006249999903804236  0.9992553713143221  1.0000
  Si  Si31      1.0  0.009749999625243838  0.00875000034630475  0.9997697720905621  1.0000
  Si  Si32      1.0  0.005249999822889211  0.00875000034630475  0.9999412387840113  1.0000
  Si  Si33      1.0  0.004249999902460725  0.00875000034630475  0.9995983053057649  1.0000
  Si  Si34      1.0  0.003249999982032239  0.00875000034630475  0.99925537126803  1.0000
  Si  Si35      1.0  0.00875000002566823  0.00875000034630475  0.9994268380515908  1.0000
  Si  Si36      1.0  0.0020000000012834114  0.00875000034630475  0.9996840383727452  1.0000
  Si  Si37      1.0  0.007499999563640085  0.00875000034630475  0.9998555051581606  1.0000
  Si  Si38      1.0  0.006499999964064478  0.00875000034630475  0.9995125716786779  1.0000
  Si  Si39      1.0  0.005499999722783113  0.00875000034630475  0.9991696379219235  1.0000
  Si  Si40      1.0  0.0010000000006417057  0.00875000034630475  0.999341104894808  1.0000
