data_image0
_chemical_formula_structural       COCa8Sn16Ir8Ca8Sn16Ir8
_chemical_formula_sum              "C1 O1 Ca16 Sn32 Ir16"
_cell_length_a       13.4444277889102
_cell_length_b       8.759406089782715
_cell_length_c       110.33328247070312
_cell_angle_alpha    90.0
_cell_angle_beta     70.07755323547649
_cell_angle_gamma    90.0

_space_group_name_H-M_alt    "P 1"
_space_group_IT_number       1

loop_
  _space_group_symop_operation_xyz
  'x, y, z'

loop_
  _atom_site_type_symbol
  _atom_site_label
  _atom_site_symmetry_multiplicity
  _atom_site_fract_x
  _atom_site_fract_y
  _atom_site_fract_z
  _atom_site_occupancy
  C   C1        1.0  0.0004087177512560515  7.699999629523404e-09  0.9998742679847432  1.0000
  O   O1        1.0  0.0004087177512560515  7.699999629523404e-09  0.9999830295845976  1.0000
  Ca  Ca1       1.0  0.0014381478726251684  8.999999948860609e-10  0.9996912390929718  1.0000
  Ca  Ca2       1.0  0.006593911663114864  5.999999796911897e-10  0.9990847605797518  1.0000
  Ca  Ca3       1.0  0.00590023743599494  0.002499999608732939  0.9996158664041511  1.0000
  Ca  Ca4       1.0  0.0009161938436120563  0.002500000459313506  0.9990021784298133  1.0000
  Ca  Ca5       1.0  0.004093911486279254  0.002500000459313506  0.9987801283822226  1.0000
  Ca  Ca6       1.0  0.009093911545224457  0.002500000459313506  0.9993893927895184  1.0000
  Ca  Ca7       1.0  0.008416193784666853  5.999999796911897e-10  0.9986975461193444  1.0000
  Ca  Ca8       1.0  0.0034161937257216495  5.999999796911897e-10  0.9993068106395798  1.0000
  Sn  Sn1       1.0  0.002016518945271312  5.999999796911897e-10  0.9987749133673657  1.0000
  Sn  Sn2       1.0  0.007016518709490498  5.999999796911897e-10  0.9993841777868988  1.0000
  Sn  Sn3       1.0  0.0037728018909244  0.009999995883190057  0.9997436767337545  1.0000
  Sn  Sn4       1.0  0.009051117327550855  5.999999796911897e-10  0.99913625649642  1.0000
  Sn  Sn5       1.0  0.0054935862667295915  0.002500000459313506  0.9993120251142131  1.0000
  Sn  Sn6       1.0  0.0004935864288289012  0.002500000459313506  0.9987027609678512  1.0000
  Sn  Sn7       1.0  0.003451944286314112  0.002499997056991239  0.9995678533047886  1.0000
  Sn  Sn8       1.0  0.008458988002340453  0.002500000459313506  0.9989506824124428  1.0000
  Sn  Sn9       1.0  0.004516518827380905  0.002500000459313506  0.9990795455771323  1.0000
  Sn  Sn10      1.0  0.00942707101378582  0.0025000132180220086  0.9996890994820357  1.0000
  Sn  Sn11      1.0  0.006551117445441262  0.002500000459313506  0.9988316242866535  1.0000
  Sn  Sn12      1.0  0.001551117239133051  0.002500000459313506  0.999440888272784  1.0000
  Sn  Sn13      1.0  0.007980546290941451  1.1899999132471865e-08  0.9996381529469772  1.0000
  Sn  Sn14      1.0  0.0029935863846199985  5.999999796911897e-10  0.9990073929044466  1.0000
  Sn  Sn15      1.0  0.005958988120230861  5.999999796911897e-10  0.9986460502026763  1.0000
  Sn  Sn16      1.0  0.0009589881349671623  5.999999796911897e-10  0.9992553147198523  1.0000
  Ir  Ir1       1.0  0.002693680852560787  0.002500000459313506  0.998609506043183  1.0000
  Ir  Ir2       1.0  0.007693680616779973  0.002500000459313506  0.9992187704627161  1.0000
  Ir  Ir3       1.0  0.004855112748970392  0.009999999285512325  0.9994737370087313  1.0000
  Ir  Ir4       1.0  0.009816424123659302  5.999999796911897e-10  0.9988681684706214  1.0000
  Ir  Ir5       1.0  0.00519368073467038  5.999999796911897e-10  0.9989141382529496  1.0000
  Ir  Ir6       1.0  0.0001835753495179414  5.499999619491454e-09  0.9995184125582767  1.0000
  Ir  Ir7       1.0  0.007316424241549709  0.002500000459313506  0.9985635362608548  1.0000
  Ir  Ir8       1.0  0.002316424624693532  0.002500000459313506  0.9991728007627342  1.0000
  Ca  Ca9       1.0  0.0014381478726251684  0.005000000493336729  0.9996912390929718  1.0000
  Ca  Ca10      1.0  0.006593911663114864  0.005000000493336729  0.9990847605797518  1.0000
  Ca  Ca11      1.0  0.00590023743599494  0.0074999992514891015  0.9996158664041511  1.0000
  Ca  Ca12      1.0  0.0009161938436120563  0.007500000102069668  0.9990021784298133  1.0000
  Ca  Ca13      1.0  0.004093911486279254  0.007500000102069668  0.9987801283822226  1.0000
  Ca  Ca14      1.0  0.009093911545224457  0.007500000102069668  0.9993893927895184  1.0000
  Ca  Ca15      1.0  0.008416193784666853  0.005000000493336729  0.9986975461193444  1.0000
  Ca  Ca16      1.0  0.0034161937257216495  0.005000000493336729  0.9993068106395798  1.0000
  Sn  Sn17      1.0  0.002016518945271312  0.005000000493336729  0.9987749133673657  1.0000
  Sn  Sn18      1.0  0.007016518709490498  0.005000000493336729  0.9993841777868988  1.0000
  Sn  Sn19      1.0  0.0037728018909244  0.004999996240433895  0.9997436767337545  1.0000
  Sn  Sn20      1.0  0.009051117327550855  0.005000000493336729  0.99913625649642  1.0000
  Sn  Sn21      1.0  0.0054935862667295915  0.007500000102069668  0.9993120251142131  1.0000
  Sn  Sn22      1.0  0.0004935864288289012  0.007500000102069668  0.9987027609678512  1.0000
  Sn  Sn23      1.0  0.003451944286314112  0.007499996699747401  0.9995678533047886  1.0000
  Sn  Sn24      1.0  0.008458988002340453  0.007500000102069668  0.9989506824124428  1.0000
  Sn  Sn25      1.0  0.004516518827380905  0.007500000102069668  0.9990795455771323  1.0000
  Sn  Sn26      1.0  0.00942707101378582  0.0075000128607781704  0.9996890994820357  1.0000
  Sn  Sn27      1.0  0.006551117445441262  0.007500000102069668  0.9988316242866535  1.0000
  Sn  Sn28      1.0  0.001551117239133051  0.007500000102069668  0.999440888272784  1.0000
  Sn  Sn29      1.0  0.007980546290941451  0.005000011550884097  0.9996381529469772  1.0000
  Sn  Sn30      1.0  0.0029935863846199985  0.005000000493336729  0.9990073929044466  1.0000
  Sn  Sn31      1.0  0.005958988120230861  0.005000000493336729  0.9986460502026763  1.0000
  Sn  Sn32      1.0  0.0009589881349671623  0.005000000493336729  0.9992553147198523  1.0000
  Ir  Ir9       1.0  0.002693680852560787  0.007500000102069668  0.998609506043183  1.0000
  Ir  Ir10      1.0  0.007693680616779973  0.007500000102069668  0.9992187704627161  1.0000
  Ir  Ir11      1.0  0.004855112748970392  0.004999999217465878  0.9994737370087313  1.0000
  Ir  Ir12      1.0  0.009816424123659302  0.005000000493336729  0.9988681684706214  1.0000
  Ir  Ir13      1.0  0.00519368073467038  0.005000000493336729  0.9989141382529496  1.0000
  Ir  Ir14      1.0  0.0001835753495179414  0.005000005171529846  0.9995184125582767  1.0000
  Ir  Ir15      1.0  0.007316424241549709  0.007500000102069668  0.9985635362608548  1.0000
  Ir  Ir16      1.0  0.002316424624693532  0.007500000102069668  0.9991728007627342  1.0000
