data_image0
_chemical_formula_structural       HFeNiPt2FeNiPt2FeNiPt2FeNiPt2FeNiPt2FeNiPt2FeNiPt2FeNiPt2
_chemical_formula_sum              "H1 Fe8 Ni8 Pt16"
_cell_length_a       7.308218002319336
_cell_length_b       7.676969528198242
_cell_length_c       100.70787811279297
_cell_angle_alpha    90.0
_cell_angle_beta     90.0
_cell_angle_gamma    90.0

_space_group_name_H-M_alt    "P 1"
_space_group_IT_number       1

loop_
  _space_group_symop_operation_xyz
  'x, y, z'

loop_
  _atom_site_type_symbol
  _atom_site_label
  _atom_site_symmetry_multiplicity
  _atom_site_fract_x
  _atom_site_fract_y
  _atom_site_fract_z
  _atom_site_occupancy
  H   H1        1.0  0.0037500001937011613  0.0012499999902948935  0.0001223391727095406  1.0000
  Fe  Fe1       1.0  0.0012499999796104042  0.0012499999902948935  0.9998094250623277  1.0000
  Ni  Ni1       1.0  0.0012499999796104042  0.0037499999708846808  0.0  1.0000
  Pt  Pt1       1.0  0.0037500001937011613  0.0012499999902948935  0.0  1.0000
  Pt  Pt2       1.0  0.0037500001937011613  0.0037499999708846808  0.9998094250623277  1.0000
  Fe  Fe2       1.0  0.0012499999796104042  0.0012499999902948935  0.9994282745951264  1.0000
  Ni  Ni2       1.0  0.0012499999796104042  0.0037499999708846808  0.9996188498287271  1.0000
  Pt  Pt3       1.0  0.0037500001937011613  0.0012499999902948935  0.9996188498287271  1.0000
  Pt  Pt4       1.0  0.0037500001937011613  0.0037499999708846808  0.9994282745951264  1.0000
  Fe  Fe3       1.0  0.0012499999796104042  0.006250000194102128  0.9998094250623277  1.0000
  Ni  Ni3       1.0  0.0012499999796104042  0.008749999689436596  0.0  1.0000
  Pt  Pt5       1.0  0.0037500001937011613  0.006250000194102128  0.0  1.0000
  Pt  Pt6       1.0  0.0037500001937011613  0.008749999689436596  0.9998094250623277  1.0000
  Fe  Fe4       1.0  0.0012499999796104042  0.006250000194102128  0.9994282745951264  1.0000
  Ni  Ni4       1.0  0.0012499999796104042  0.008749999689436596  0.9996188498287271  1.0000
  Pt  Pt7       1.0  0.0037500001937011613  0.006250000194102128  0.9996188498287271  1.0000
  Pt  Pt8       1.0  0.0037500001937011613  0.008749999689436596  0.9994282745951264  1.0000
  Fe  Fe5       1.0  0.006250000407791919  0.0012499999902948935  0.9998094250623277  1.0000
  Ni  Ni5       1.0  0.006250000407791919  0.0037499999708846808  0.0  1.0000
  Pt  Pt9       1.0  0.008750000367012727  0.0012499999902948935  0.0  1.0000
  Pt  Pt10      1.0  0.008750000367012727  0.0037499999708846808  0.9998094250623277  1.0000
  Fe  Fe6       1.0  0.006250000407791919  0.0012499999902948935  0.9994282745951264  1.0000
  Ni  Ni6       1.0  0.006250000407791919  0.0037499999708846808  0.9996188498287271  1.0000
  Pt  Pt11      1.0  0.008750000367012727  0.0012499999902948935  0.9996188498287271  1.0000
  Pt  Pt12      1.0  0.008750000367012727  0.0037499999708846808  0.9994282745951264  1.0000
  Fe  Fe7       1.0  0.006250000407791919  0.006250000194102128  0.9998094250623277  1.0000
  Ni  Ni7       1.0  0.006250000407791919  0.008749999689436596  0.0  1.0000
  Pt  Pt13      1.0  0.008750000367012727  0.006250000194102128  0.0  1.0000
  Pt  Pt14      1.0  0.008750000367012727  0.008749999689436596  0.9998094250623277  1.0000
  Fe  Fe8       1.0  0.006250000407791919  0.006250000194102128  0.9994282745951264  1.0000
  Ni  Ni8       1.0  0.006250000407791919  0.008749999689436596  0.9996188498287271  1.0000
  Pt  Pt15      1.0  0.008750000367012727  0.006250000194102128  0.9996188498287271  1.0000
  Pt  Pt16      1.0  0.008750000367012727  0.008749999689436596  0.9994282745951264  1.0000
