data_image0
_chemical_formula_structural       COAu6In6Pd12
_chemical_formula_sum              "C1 O1 Au6 In6 Pd12"
_cell_length_a       8.029104713081786
_cell_length_b       6.555736541748047
_cell_length_c       105.30371856689453
_cell_angle_alpha    90.0
_cell_angle_beta     85.65224698928904
_cell_angle_gamma    114.09484253493682

_space_group_name_H-M_alt    "P 1"
_space_group_IT_number       1

loop_
  _space_group_symop_operation_xyz
  'x, y, z'

loop_
  _atom_site_type_symbol
  _atom_site_label
  _atom_site_symmetry_multiplicity
  _atom_site_fract_x
  _atom_site_fract_y
  _atom_site_fract_z
  _atom_site_occupancy
  C   C1        1.0  0.0037614074017453653  0.007089037034206016  0.0001421712282469535  1.0000
  O   O1        1.0  0.0037614074017453653  0.007089037034206016  0.00025612754889741573  1.0000
  Au  Au1       1.0  0.003541666724468823  0.001979166704091479  0.9994882045749085  1.0000
  Au  Au2       1.0  0.005208333163326992  0.00781249991499683  0.999767584796623  1.0000
  Au  Au3       1.0  0.0018750000306011416  0.006145833348633905  0.9992088243546682  1.0000
  Au  Au4       1.0  0.00937500040801522  0.00489583351034912  0.9996278945783682  1.0000
  Au  Au5       1.0  0.0010416666836673008  0.0007291666836907179  0.9999072750104556  1.0000
  Au  Au6       1.0  0.007708333204128514  0.009062499935397591  0.9993485146440888  1.0000
  In  In1       1.0  0.003541666724468823  0.006979166695567745  0.9994882045749085  1.0000
  In  In2       1.0  0.005208333163326992  0.002812499888005005  0.999767584796623  1.0000
  In  In3       1.0  0.0018750000306011416  0.00114583332164208  0.9992088243546682  1.0000
  In  In4       1.0  0.00937500040801522  0.009895833537340946  0.9996278945783682  1.0000
  In  In5       1.0  0.0010416666836673008  0.005729166675166985  0.9999072750104556  1.0000
  In  In6       1.0  0.007708333204128514  0.004062499908405766  0.9993485146440888  1.0000
  Pd  Pd1       1.0  0.004791666489860071  0.00010416655553341154  0.999278669358609  1.0000
  Pd  Pd2       1.0  0.006458333183727753  0.005937499822912401  0.9995580498618624  1.0000
  Pd  Pd3       1.0  0.008124999877595435  0.001770833249401093  0.9998374295160768  1.0000
  Pd  Pd4       1.0  0.008124999877595435  0.006770833169846243  0.9998374295160768  1.0000
  Pd  Pd5       1.0  0.004791666489860071  0.0051041664759785615  0.999278669358609  1.0000
  Pd  Pd6       1.0  0.006458333183727753  0.0009374999024672522  0.9995580498618624  1.0000
  Pd  Pd7       1.0  0.003958333397935743  0.004687499930016398  0.9999771197299094  1.0000
  Pd  Pd8       1.0  0.0006250000102003805  0.0030208332361487157  0.9994183595724416  1.0000
  Pd  Pd9       1.0  0.002291666704068062  0.008854166503527707  0.999697739509669  1.0000
  Pd  Pd10      1.0  0.002291666704068062  0.0038541665830825566  0.999697739509669  1.0000
  Pd  Pd11      1.0  0.003958333397935743  0.009687499850461547  0.9999771197299094  1.0000
  Pd  Pd12      1.0  0.0006250000102003805  0.008020833156593864  0.9994183595724416  1.0000
