data_image0
_chemical_formula_structural       COCa20Au12
_chemical_formula_sum              "C1 O1 Ca20 Au12"
_cell_length_a       14.834479331970215
_cell_length_b       7.987038612365723
_cell_length_c       101.94815063476562
_cell_angle_alpha    90.0
_cell_angle_beta     90.0
_cell_angle_gamma    90.0

_space_group_name_H-M_alt    "P 1"
_space_group_IT_number       1

loop_
  _space_group_symop_operation_xyz
  'x, y, z'

loop_
  _atom_site_type_symbol
  _atom_site_label
  _atom_site_symmetry_multiplicity
  _atom_site_fract_x
  _atom_site_fract_y
  _atom_site_fract_z
  _atom_site_occupancy
  C   C1        1.0  0.009582795473105601  0.007785467872035364  0.00012299768726742834  1.0000
  O   O1        1.0  0.009582795473105601  0.007785467872035364  0.0002407048182352647  1.0000
  Ca  Ca1       1.0  0.0043577446633347216  0.003958211648256953  0.9994968732993513  1.0000
  Ca  Ca2       1.0  0.006531291162198533  0.009012131893284515  0.9998802986058497  1.0000
  Ca  Ca3       1.0  0.0064769394412911695  0.002343543750418656  0.9996233730788096  1.0000
  Ca  Ca4       1.0  0.0064769394412911695  0.007343543395941764  0.9994968732993513  1.0000
  Ca  Ca5       1.0  0.006497194581911156  0.004045944212710255  0.9999999894761837  1.0000
  Ca  Ca6       1.0  0.0043577446633347216  0.008958212226613988  0.9996233730788096  1.0000
  Ca  Ca7       1.0  0.002917342192942254  0.0006508777599720096  0.9993642626905812  1.0000
  Ca  Ca8       1.0  0.007917342162807402  0.0006508777599720096  0.9993642626905812  1.0000
  Ca  Ca9       1.0  0.00433480450742166  0.007256482471916176  0.9999999690132076  1.0000
  Ca  Ca10      1.0  0.0043025818126671035  0.002289270539689651  0.9998802342936393  1.0000
  Ca  Ca11      1.0  0.009302600616814611  0.009012494765682267  0.999880236632265  1.0000
  Ca  Ca12      1.0  0.0014769398481116682  0.003958211648256953  0.9994968732993513  1.0000
  Ca  Ca13      1.0  0.0014972592764154397  0.007255840682174138  0.0  1.0000
  Ca  Ca14      1.0  0.001531302618464683  0.0022896289811262472  0.9998803032831014  1.0000
  Ca  Ca15      1.0  0.0014769398481116682  0.008958212226613988  0.9996233730788096  1.0000
  Ca  Ca16      1.0  0.009334835867757406  0.0040453355385726385  0.9999999719364899  1.0000
  Ca  Ca17      1.0  0.007917419508926956  0.0056427912511998485  0.9997461059167009  1.0000
  Ca  Ca18      1.0  0.0029174461581808744  0.005658982916094379  0.9997461065013574  1.0000
  Ca  Ca19      1.0  0.009357744382076105  0.002343543750418656  0.9996233730788096  1.0000
  Ca  Ca20      1.0  0.009357744382076105  0.007343543395941764  0.9994968732993513  1.0000
  Au  Au1       1.0  0.002917342192942254  0.0019526332799160288  0.999653998553457  1.0000
  Au  Au2       1.0  0.002917342192942254  0.006952633275251859  0.9994662475323756  1.0000
  Au  Au3       1.0  0.007917342162807402  0.009349121880886928  0.999653998553457  1.0000
  Au  Au4       1.0  0.007917342162807402  0.004349122235363821  0.9994662475323756  1.0000
  Au  Au5       1.0  0.005417266966307275  0.005651091141068728  0.9997610164103807  1.0000
  Au  Au6       1.0  0.00541734230343671  0.0006508777599720096  0.9993642626905812  1.0000
  Au  Au7       1.0  0.007917342162807402  0.006952633275251859  0.9992622778487867  1.0000
  Au  Au8       1.0  0.007916290958728015  0.002055227404687656  0.9998593357485039  1.0000
  Au  Au9       1.0  0.002917342192942254  0.004349122235363821  0.9992622778487867  1.0000
  Au  Au10      1.0  0.002916232728149436  0.009246470037016044  0.9998593316559088  1.0000
  Au  Au11      1.0  0.0004173422394001503  0.0006508777599720096  0.9993642626905812  1.0000
  Au  Au12      1.0  0.0004172042468914012  0.005650685824727281  0.9997610251802276  1.0000
