data_image0
_chemical_formula_structural       COCa16Ga16Au16
_chemical_formula_sum              "C1 O1 Ca16 Ga16 Au16"
_cell_length_a       15.543554598456716
_cell_length_b       9.131293534646309
_cell_length_c       106.52517700195312
_cell_angle_alpha    61.18885298128065
_cell_angle_beta     98.75303229022177
_cell_angle_gamma    81.2469672396861

_space_group_name_H-M_alt    "P 1"
_space_group_IT_number       1

loop_
  _space_group_symop_operation_xyz
  'x, y, z'

loop_
  _atom_site_type_symbol
  _atom_site_label
  _atom_site_symmetry_multiplicity
  _atom_site_fract_x
  _atom_site_fract_y
  _atom_site_fract_z
  _atom_site_occupancy
  C   C1        1.0  0.005391476125391985  0.008949376778204298  0.9999608436329248  1.0000
  O   O1        1.0  0.005391476125391985  0.008949376778204298  7.34932868040182e-05  1.0000
  Ca  Ca1       1.0  0.009979933243315796  0.005268189198992959  0.9991659294963431  1.0000
  Ca  Ca2       1.0  0.005049719595468889  0.007814242826937127  0.9997893181107566  1.0000
  Ca  Ca3       1.0  0.0049799335574083605  0.0027681893147313277  0.9993802286803678  1.0000
  Ca  Ca4       1.0  2.0066699021935795e-05  0.00036731678144582164  0.9996055986106875  1.0000
  Ca  Ca5       1.0  0.007539176129583881  0.006488567352354261  0.9994899171268323  1.0000
  Ca  Ca6       1.0  0.0025391763708683818  0.008988567718859095  0.9992756181702229  1.0000
  Ca  Ca7       1.0  0.002583344081117474  0.004298186412167356  0.9996966375033512  1.0000
  Ca  Ca8       1.0  0.007539176621973461  0.0014885675838309982  0.999061319357648  1.0000
  Ca  Ca9       1.0  0.00747993381165108  0.006023117786258948  0.9990163428613302  1.0000
  Ca  Ca10      1.0  0.0024846247723902264  0.008613074835441645  0.9996426398749384  1.0000
  Ca  Ca11      1.0  0.0024799334309687964  0.0035231176608757154  0.9992306417601208  1.0000
  Ca  Ca12      1.0  0.007479933366773772  0.0010231177766140843  0.9994449407007407  1.0000
  Ca  Ca13      1.0  0.005039176697919162  0.00724349593962025  0.9993403302120516  1.0000
  Ca  Ca14      1.0  3.917645421957863e-05  0.009743496306125084  0.9991260312446734  1.0000
  Ca  Ca15      1.0  7.561079213957628e-05  0.004720672931270792  0.9995449910358067  1.0000
  Ca  Ca16      1.0  0.005125062211038823  0.002403153151815037  0.9997479750379085  1.0000
  Ga  Ga1       1.0  0.008276217082933584  0.009542931357826493  0.9997815969978887  1.0000
  Ga  Ga2       1.0  0.0034479623603444827  0.0015763787664968842  0.9996015425353305  1.0000
  Ga  Ga3       1.0  0.003411544465613527  0.0066575661072871845  0.9991505849428731  1.0000
  Ga  Ga4       1.0  0.00841154415892646  0.004157566223025553  0.9993648838781086  1.0000
  Ga  Ga5       1.0  0.009150331133100315  0.004123014461987569  0.9998136169863855  1.0000
  Ga  Ga6       1.0  0.004102970740043115  0.0062526187734918024  0.999624458953832  1.0000
  Ga  Ga7       1.0  0.004107565551272437  0.0013095557721440525  0.9991804161507023  1.0000
  Ga  Ga8       1.0  0.00910756526247566  0.008809555183807345  0.9993947150370857  1.0000
  Ga  Ga9       1.0  0.005911544186369718  0.008702129723329127  0.9995401430000292  1.0000
  Ga  Ga10      1.0  0.0009115443307782977  0.00120212958830103  0.9993258438605543  1.0000
  Ga  Ga11      1.0  0.0007308136127339509  0.00627796981645191  0.9997398098396176  1.0000
  Ga  Ga12      1.0  0.0059115442591777785  0.003702129472562661  0.999111544961682  1.0000
  Ga  Ga13      1.0  0.006770725635545229  0.003187948748519475  0.9995953198790088  1.0000
  Ga  Ga14      1.0  0.0016075653689249343  0.005854119031326025  0.9993556749981574  1.0000
  Ga  Ga15      1.0  0.0020934935729489614  0.0008903936568437302  0.9997807155623295  1.0000
  Ga  Ga16      1.0  0.006607565297324414  0.008354118915587657  0.999141376099285  1.0000
  Au  Au1       1.0  0.006462994620922624  4.4308999075171344e-05  0.9996973651366016  1.0000
  Au  Au2       1.0  0.0014751314178716546  0.0025559943482176785  0.9994902069354077  1.0000
  Au  Au3       1.0  0.001475131499010898  0.0075559943578625425  0.9990616090879206  1.0000
  Au  Au4       1.0  0.006475131434815874  0.005055994473600911  0.9992759080285406  1.0000
  Au  Au5       1.0  0.008627214367159495  0.002617602123061429  0.9996670822488259  1.0000
  Au  Au6       1.0  0.0035439783355275633  0.004955690780750666  0.99944465085311  1.0000
  Au  Au7       1.0  0.0035439782627195025  0.009955691031517132  0.9990160529922437  1.0000
  Au  Au8       1.0  0.008543978021435002  0.007455690665012298  0.9992303519488531  1.0000
  Au  Au9       1.0  0.008928669770421024  0.007526056217551591  0.9996802573249473  1.0000
  Au  Au10      1.0  0.003975131668118651  0.00974011385229636  0.9994631298259073  1.0000
  Au  Au11      1.0  0.003975131675524147  0.004740114083773098  0.9990345320459542  1.0000
  Au  Au12      1.0  0.008975131821119883  0.0022401144406330687  0.9992488309812716  1.0000
  Au  Au13      1.0  0.005956745135292287  0.005409700573574665  0.9996627382299077  1.0000
  Au  Au14      1.0  0.0010439784015063573  0.007771571054840111  0.999471727620693  1.0000
  Au  Au15      1.0  0.0010439784416131355  0.002771571045195247  0.9990431301311946  1.0000
  Au  Au16      1.0  0.006043978640348456  0.00027157101023261436  0.9992574290838783  1.0000
