data_image0
_chemical_formula_structural       HPd6Pt6Zn12
_chemical_formula_sum              "H1 Pd6 Pt6 Zn12"
_cell_length_a       6.206786632537842
_cell_length_b       7.601730190965339
_cell_length_c       103.42456817626953
_cell_angle_alpha    94.34775301306945
_cell_angle_beta     90.0
_cell_angle_gamma    114.09484223208345

_space_group_name_H-M_alt    "P 1"
_space_group_IT_number       1

loop_
  _space_group_symop_operation_xyz
  'x, y, z'

loop_
  _atom_site_type_symbol
  _atom_site_label
  _atom_site_symmetry_multiplicity
  _atom_site_fract_x
  _atom_site_fract_y
  _atom_site_fract_z
  _atom_site_occupancy
  H   H1        1.0  0.009121655660420117  0.00786316619817932  4.381386361297543e-05  1.0000
  Pd  Pd1       1.0  0.0069734643116094374  0.0035680547162963545  0.9997880213270861  1.0000
  Pd  Pd2       1.0  0.0028317729776702162  0.005285716352447102  0.9995229667983807  1.0000
  Pd  Pd3       1.0  0.00118524106172439  0.0019887781034660847  4.394967736837293e-05  1.0000
  Pd  Pd4       1.0  0.009915106705245112  0.009452383845109161  0.999657624465612  1.0000
  Pd  Pd5       1.0  0.005748439683939118  0.0011190498024971757  0.9993883091364023  1.0000
  Pd  Pd6       1.0  0.0040054521576739855  0.007632381110619096  0.9999279493626124  1.0000
  Pt  Pt1       1.0  0.0019783207331789394  0.0035760063584521894  0.9997900798384688  1.0000
  Pt  Pt2       1.0  0.007831772958914083  0.005285716352447102  0.9995229667983807  1.0000
  Pt  Pt3       1.0  0.006182600755037319  0.0019861487446582375  4.163842990153133e-05  1.0000
  Pt  Pt4       1.0  0.0049151066864889775  0.009452383845109161  0.999657624465612  1.0000
  Pt  Pt5       1.0  0.0007484397589636549  0.0011190498024971757  0.9993883091364023  1.0000
  Pt  Pt6       1.0  0.009017657004807342  0.007655168886953771  0.9999241078641928  1.0000
  Zn  Zn1       1.0  0.005201763132009095  0.004909294630504767  4.39399896080981e-06  1.0000
  Zn  Zn2       1.0  0.0009567730558787587  0.006535716546376455  0.999724953238655  1.0000
  Zn  Zn3       1.0  0.006790106338934111  0.00820238311248716  0.9994556377341809  1.0000
  Zn  Zn4       1.0  0.0017901061888850392  0.00820238311248716  0.9994556377341809  1.0000
  Zn  Zn5       1.0  8.489365098881653e-05  0.004906382458057477  4.218710579148816e-06  1.0000
  Zn  Zn6       1.0  0.0059567730558787585  0.006535716546376455  0.999724953238655  1.0000
  Zn  Zn7       1.0  0.009706772996622566  0.004035716427864073  0.9993209803596073  1.0000
  Zn  Zn8       1.0  0.007960689116110751  0.0005476167972818208  0.9998616201816473  1.0000
  Zn  Zn9       1.0  0.0038734397135672147  0.002369049861753367  0.999590295287771  1.0000
  Zn  Zn10      1.0  0.008873439713567214  0.002369049861753367  0.999590295287771  1.0000
  Zn  Zn11      1.0  0.004706772996622568  0.004035716427864073  0.9993209803596073  1.0000
  Zn  Zn12      1.0  0.002965947631518632  0.0005482672013159581  0.9998615748193472  1.0000
