data_image0
_chemical_formula_structural       COGe6Na12Zn6
_chemical_formula_sum              "C1 O1 Ge6 Na12 Zn6"
_cell_length_a       6.018743059766469
_cell_length_b       8.226828216254203
_cell_length_c       106.60486602783203
_cell_angle_alpha    86.16078094854284
_cell_angle_beta     88.67990642260625
_cell_angle_gamma    80.95133528685399

_space_group_name_H-M_alt    "P 1"
_space_group_IT_number       1

loop_
  _space_group_symop_operation_xyz
  'x, y, z'

loop_
  _atom_site_type_symbol
  _atom_site_label
  _atom_site_symmetry_multiplicity
  _atom_site_fract_x
  _atom_site_fract_y
  _atom_site_fract_z
  _atom_site_occupancy
  C   C1        1.0  0.009685556637078886  0.0007288178402338666  6.919014709475361e-05  1.0000
  O   O1        1.0  0.009685556637078886  0.0007288178402338666  0.0001817555933621139  1.0000
  Ge  Ge1       1.0  0.002972704053388103  0.00941719945902825  0.9993771730183509  1.0000
  Ge  Ge2       1.0  0.0018599386989844038  0.003864195643137201  0.9997643016790362  1.0000
  Ge  Ge3       1.0  0.0040838151389602844  0.004972754591866921  0.9989956511040043  1.0000
  Ge  Ge4       1.0  0.007582851276387939  0.004660857533176585  0.9993604400701382  1.0000
  Ge  Ge5       1.0  0.0063626075063157456  0.009043168531972923  0.9997553643629535  1.0000
  Ge  Ge6       1.0  0.008693962322205581  0.00021641285267692413  0.9989789181548788  1.0000
  Na  Na1       1.0  0.009333071480785047  0.0038948628341786496  0.9990696740690654  1.0000
  Na  Na2       1.0  0.008221960493070196  0.008339307241865103  0.9994511957061002  1.0000
  Na  Na3       1.0  0.007195199640597956  0.002760526655762188  0.999816421020231  1.0000
  Na  Na4       1.0  0.0023335949345631764  0.005738749290864857  0.9992864168255183  1.0000
  Na  Na5       1.0  0.0012224838368173787  0.00018319395355986722  0.999667938506108  1.0000
  Na  Na6       1.0  0.003444705897813695  0.0012943049980471215  0.9989048951879219  1.0000
  Na  Na7       1.0  0.006249849342895213  0.007696876364089008  0.999151944484158  1.0000
  Na  Na8       1.0  0.005138737768582847  0.0021413210842183773  0.9995334664446295  1.0000
  Na  Na9       1.0  0.003704793284769287  0.006634888869715921  0.9999095210503667  1.0000
  Na  Na10      1.0  0.0054168171213816755  0.0019367355312170612  0.9992041464115492  1.0000
  Na  Na11      1.0  0.004305706182595489  0.006381179709166078  0.9995856683292662  1.0000
  Na  Na12      1.0  0.0029608142180736732  0.0008448892344103189  0.9999607773855481  1.0000
  Zn  Zn1       1.0  0.009722222495643699  0.004261250396692228  0.9995595670521987  1.0000
  Zn  Zn2       1.0  0.009011633382446186  0.00899216038822554  0.9999418149020685  1.0000
  Zn  Zn3       1.0  0.0008333333394032728  0.009816805676562857  0.9991780454812641  1.0000
  Zn  Zn4       1.0  0.00027777772328273383  0.0020390281928490007  0.9993688060634968  1.0000
  Zn  Zn5       1.0  0.009074309141240376  0.006432405644004101  0.9997630267118406  1.0000
  Zn  Zn6       1.0  0.0013888887354033676  0.007594583932194506  0.9989872846604998  1.0000
