data_image0
_chemical_formula_structural       HGa6Pt4Ga6Pt4
_chemical_formula_sum              "H1 Ga12 Pt8"
_cell_length_a       7.471493244171143
_cell_length_b       6.88006943467414
_cell_length_c       100.1956787109375
_cell_angle_alpha    108.26969276819182
_cell_angle_beta     90.0
_cell_angle_gamma    57.11320363510372

_space_group_name_H-M_alt    "P 1"
_space_group_IT_number       1

loop_
  _space_group_symop_operation_xyz
  'x, y, z'

loop_
  _atom_site_type_symbol
  _atom_site_label
  _atom_site_symmetry_multiplicity
  _atom_site_fract_x
  _atom_site_fract_y
  _atom_site_fract_z
  _atom_site_occupancy
  H   H1        1.0  0.007492706102108238  0.006356384616062119  0.0002345252876652594  1.0000
  Ga  Ga1       1.0  0.0004192059163147741  0.0002708053882325096  0.9997815334733786  1.0000
  Ga  Ga2       1.0  0.005419205863961721  0.0002708053882325096  0.9995662711165387  1.0000
  Ga  Ga3       1.0  0.00886803600792104  0.006706479457440237  0.9997048068614546  1.0000
  Ga  Ga4       1.0  0.003868035748648779  0.006706479457440237  0.9994895448020559  1.0000
  Ga  Ga5       1.0  0.006970376228990114  0.0038351313381384043  0.9996429975861025  1.0000
  Ga  Ga6       1.0  0.0019703762190181034  0.0038351313381384043  0.9994277355267038  1.0000
  Pt  Pt1       1.0  0.0012576177147684468  0.001927315006656378  0.9996019295093475  1.0000
  Pt  Pt2       1.0  0.006257617974040709  0.001927315006656378  0.9993866674499488  1.0000
  Pt  Pt3       1.0  0.004580794090478287  0.008614295615162058  0.9997458749344692  1.0000
  Pt  Pt4       1.0  0.009580793851150043  0.008614295615162058  0.9995306128750705  1.0000
  Ga  Ga7       1.0  0.0010206003401806547  0.009729194609161086  0.00021581172113003502  1.0000
  Ga  Ga8       1.0  0.005391779024959067  0.0004951234055958192  1.0658136052550075e-05  1.0000
  Ga  Ga9       1.0  0.00896105122443732  0.006609255757406777  0.00012532231884237918  1.0000
  Ga  Ga10      1.0  0.0038906457526922495  0.006671230462235729  0.9999125091502595  1.0000
  Ga  Ga11      1.0  0.007230748937363084  0.003690735565147588  7.085689434168923e-05  1.0000
  Ga  Ga12      1.0  0.0019703762190181034  0.0038351313381384043  0.9998582599429424  1.0000
  Pt  Pt5       1.0  0.001397314474753323  0.0019012155288110767  3.269638343804874e-05  1.0000
  Pt  Pt6       1.0  0.006257617974040709  0.001927315006656378  0.9998171918661873  1.0000
  Pt  Pt7       1.0  0.004910419287968784  0.008256439252942992  0.00014653668641164427  1.0000
  Pt  Pt8       1.0  0.009526554991935842  0.008776648115267259  0.9999766883111204  1.0000
