data_image0
_chemical_formula_structural       HOs3V9Os3V9Os3V9Os3V9
_chemical_formula_sum              "H1 Os12 V36"
_cell_length_a       8.488194465637207
_cell_length_b       8.48819419406665
_cell_length_c       38.81238555908203
_cell_angle_alpha    90.0
_cell_angle_beta     90.0
_cell_angle_gamma    120.00000105835016

_space_group_name_H-M_alt    "P 1"
_space_group_IT_number       1

loop_
  _space_group_symop_operation_xyz
  'x, y, z'

loop_
  _atom_site_type_symbol
  _atom_site_label
  _atom_site_symmetry_multiplicity
  _atom_site_fract_x
  _atom_site_fract_y
  _atom_site_fract_z
  _atom_site_occupancy
  H   H1        1.0  0.0016666662255508777  0.0016666656396050192  0.0001313832297698329  1.0000
  Os  Os1       1.0  0.0024999989735198028  0.003333331025823119  0.9993868224635395  1.0000
  Os  Os2       1.0  0.000833333307850225  1.4499999632508915e-09  0.9976022195835414  1.0000
  Os  Os3       1.0  0.0041666663930935805  0.0016666681734742149  0.9984950510361313  1.0000
  V   V1        1.0  0.0025000001477083604  0.003333333813079234  0.0  1.0000
  V   V2        1.0  0.000833333307850225  1.4499999632508915e-09  0.9982718429810199  1.0000
  V   V3        1.0  0.0041666663930935805  0.0016666681734742149  0.9991646744336098  1.0000
  V   V4        1.0  0.0041666663930935805  0.0016666681734742149  0.9978254276386529  1.0000
  V   V5        1.0  0.0025000000510235747  0.0033333348266269126  0.9987182587073148  1.0000
  V   V6        1.0  0.0008333340148787869  0.009999998905368507  0.9996239628814979  1.0000
  V   V7        1.0  0.000833333307850225  1.4499999632508915e-09  0.9989414663784983  1.0000
  V   V8        1.0  0.0041666660039169825  0.0016666656396050192  0.9998139458083123  1.0000
  V   V9        1.0  0.0025000000510235747  0.0033333348266269126  0.9980486353098365  1.0000
  Os  Os4       1.0  0.002499999136996579  0.008333331238668132  0.9993868224635395  1.0000
  Os  Os5       1.0  0.0008333334895140684  0.00500000147977961  0.9976022195835414  1.0000
  Os  Os6       1.0  0.004166666594456522  0.006666668132932307  0.9984950510361313  1.0000
  V   V10       1.0  0.0025000002942114274  0.008333333772537328  0.0  1.0000
  V   V11       1.0  0.0008333334895140684  0.00500000147977961  0.9982718429810199  1.0000
  V   V12       1.0  0.004166666594456522  0.006666668132932307  0.9991646744336098  1.0000
  V   V13       1.0  0.004166666594456522  0.006666668132932307  0.9978254276386529  1.0000
  V   V14       1.0  0.002500000142666766  0.008333334786085006  0.9987182587073148  1.0000
  V   V15       1.0  0.000833333724708551  0.0049999984391365755  0.9996239628814979  1.0000
  V   V16       1.0  0.0008333334895140684  0.00500000147977961  0.9989414663784983  1.0000
  V   V17       1.0  0.004166666205279924  0.006666665599063112  0.9998139458083123  1.0000
  V   V18       1.0  0.002500000142666766  0.008333334786085006  0.9980486353098365  1.0000
  Os  Os7       1.0  0.0074999985302520115  0.003333331025823119  0.9993868224635395  1.0000
  Os  Os8       1.0  0.005833332864582434  1.4499999632508915e-09  0.9976022195835414  1.0000
  Os  Os9       1.0  0.009166665840106041  0.0016666681734742149  0.9984950510361313  1.0000
  V   V19       1.0  0.00749999992388007  0.003333333813079234  0.0  1.0000
  V   V20       1.0  0.005833332864582434  1.4499999632508915e-09  0.9982718429810199  1.0000
  V   V21       1.0  0.009166665840106041  0.0016666681734742149  0.9991646744336098  1.0000
  V   V22       1.0  0.009166665840106041  0.0016666681734742149  0.9978254276386529  1.0000
  V   V23       1.0  0.00749999999177491  0.0033333348266269126  0.9987182587073148  1.0000
  V   V24       1.0  0.005833333791050496  0.009999998905368507  0.9996239628814979  1.0000
  V   V25       1.0  0.005833332864582434  1.4499999632508915e-09  0.9989414663784983  1.0000
  V   V26       1.0  0.009166665450929444  0.0016666656396050192  0.9998139458083123  1.0000
  V   V27       1.0  0.00749999999177491  0.0033333348266269126  0.9980486353098365  1.0000
  Os  Os10      1.0  0.00749999902288804  0.008333331238668132  0.9993868224635395  1.0000
  Os  Os11      1.0  0.005833333265685778  0.00500000147977961  0.9976022195835414  1.0000
  Os  Os12      1.0  0.009166666206048607  0.006666668132932307  0.9984950510361313  1.0000
  V   V28       1.0  0.0075000000703831365  0.008333333772537328  0.0  1.0000
  V   V29       1.0  0.005833333265685778  0.00500000147977961  0.9982718429810199  1.0000
  V   V30       1.0  0.009166666206048607  0.006666668132932307  0.9991646744336098  1.0000
  V   V31       1.0  0.009166666206048607  0.006666668132932307  0.9978254276386529  1.0000
  V   V32       1.0  0.007499999918838476  0.008333334786085006  0.9987182587073148  1.0000
  V   V33       1.0  0.0058333335008802605  0.0049999984391365755  0.9996239628814979  1.0000
  V   V34       1.0  0.005833333265685778  0.00500000147977961  0.9989414663784983  1.0000
  V   V35       1.0  0.00916666581687201  0.006666665599063112  0.9998139458083123  1.0000
  V   V36       1.0  0.007499999918838476  0.008333334786085006  0.9980486353098365  1.0000
