data_image0
_chemical_formula_structural       COPd12V6
_chemical_formula_sum              "C1 O1 Pd12 V6"
_cell_length_a       4.803231089480091
_cell_length_b       6.186267548923373
_cell_length_c       37.424842834472656
_cell_angle_alpha    95.08952657101148
_cell_angle_beta     92.40567924146897
_cell_angle_gamma    74.08092204421943

_space_group_name_H-M_alt    "P 1"
_space_group_IT_number       1

loop_
  _space_group_symop_operation_xyz
  'x, y, z'

loop_
  _atom_site_type_symbol
  _atom_site_label
  _atom_site_symmetry_multiplicity
  _atom_site_fract_x
  _atom_site_fract_y
  _atom_site_fract_z
  _atom_site_occupancy
  C   C1        1.0  0.007935963277537969  0.00471230634890952  0.0004175407374018248  1.0000
  O   O1        1.0  0.007935963277537969  0.00471230634890952  0.0007381832199754399  1.0000
  Pd  Pd1       1.0  0.009290598309191558  0.007087928623835417  0.9988342796640386  1.0000
  Pd  Pd2       1.0  0.002147741313683882  0.003278404845424103  0.9984197958356016  1.0000
  Pd  Pd3       1.0  0.005004884447113046  0.00946888114240076  0.9980053127057485  1.0000
  Pd  Pd4       1.0  0.006312201035331441  0.005283515034090239  0.9982855439119122  1.0000
  Pd  Pd5       1.0  0.009169343442586833  0.0014739910986206535  0.9978710604562088  1.0000
  Pd  Pd6       1.0  0.003455057906636843  0.009093038812501553  0.9987000273614259  1.0000
  Pd  Pd7       1.0  0.0007177792761545155  0.008440048942674666  8.038407072070424e-05  1.0000
  Pd  Pd8       1.0  0.003560999957027193  0.004609878912042623  0.9996925194599843  1.0000
  Pd  Pd9       1.0  0.0064334559520266045  0.0008974523268587598  0.9992487631962357  1.0000
  Pd  Pd10      1.0  0.007751897902931577  0.006680199695295895  0.9995233540245074  1.0000
  Pd  Pd11      1.0  0.0005979153554058374  0.0029025625155248962  0.9991145108925776  1.0000
  Pd  Pd12      1.0  0.004914387656030011  0.0005311190507809149  0.999962119958781  1.0000
  V   V1        1.0  0.0006585425947050636  0.0073761977741289555  0.9981454283133889  1.0000
  V   V2        1.0  0.004944256929331725  0.004995245569680156  0.9989743952788308  1.0000
  V   V3        1.0  0.0078014000854388236  0.0011857217127397067  0.9985599114301509  1.0000
  V   V4        1.0  0.002087114079119222  0.008804769662208015  0.999388878734451  1.0000
  V   V5        1.0  0.006331683855974134  0.00650173877830959  0.00012945131739919283  1.0000
  V   V6        1.0  0.009402084889997105  0.002453487054498306  0.9997761929829836  1.0000
