data_image0
_chemical_formula_structural       COIn2Pd6In2Pd6
_chemical_formula_sum              "C1 O1 In4 Pd12"
_cell_length_a       4.847235912832098
_cell_length_b       8.399730682373047
_cell_length_c       99.4926986694336
_cell_angle_alpha    90.0
_cell_angle_beta     92.32057094210398
_cell_angle_gamma    115.67225586817575

_space_group_name_H-M_alt    "P 1"
_space_group_IT_number       1

loop_
  _space_group_symop_operation_xyz
  'x, y, z'

loop_
  _atom_site_type_symbol
  _atom_site_label
  _atom_site_symmetry_multiplicity
  _atom_site_fract_x
  _atom_site_fract_y
  _atom_site_fract_z
  _atom_site_occupancy
  C   C1        1.0  0.008303292733944789  0.0006695732544463831  0.00010012351331312473  1.0000
  O   O1        1.0  0.008303292733944789  0.0006695732544463831  0.0002207356233390612  1.0000
  In  In1       1.0  0.0006250000405448053  0.0024999999657860854  0.9997405902427575  1.0000
  In  In2       1.0  0.005625000204857964  0.0012500000467794794  0.999370051644755  1.0000
  Pd  Pd1       1.0  0.00937500034142994  0.0021875000809224734  1.8493866343245268e-05  1.0000
  Pd  Pd2       1.0  0.00687500039264443  0.004062500053810991  0.9998332248173992  1.0000
  Pd  Pd3       1.0  0.0031250000426787422  0.0006250000200940853  0.9999258595913496  1.0000
  Pd  Pd4       1.0  0.0043750000170714965  0.000937500013692274  0.9996479554680704  1.0000
  Pd  Pd5       1.0  0.001875000068285988  0.0028124999727213813  0.9994626861195836  1.0000
  Pd  Pd6       1.0  0.008125000580430896  0.004375000100757608  0.9995553209940837  1.0000
  In  In3       1.0  0.0006250000405448053  0.007499999885955877  0.9997405902427575  1.0000
  In  In4       1.0  0.005625000204857964  0.006249999856073981  0.999370051644755  1.0000
  Pd  Pd7       1.0  0.00937500034142994  0.007187499890216975  1.8493866343245268e-05  1.0000
  Pd  Pd8       1.0  0.00687500039264443  0.009062499973980783  0.9998332248173992  1.0000
  Pd  Pd9       1.0  0.0031250000426787422  0.005624999815529176  0.9999258595913496  1.0000
  Pd  Pd10      1.0  0.0043750000170714965  0.005937499809127365  0.9996479554680704  1.0000
  Pd  Pd11      1.0  0.001875000068285988  0.007812499892891172  0.9994626861195836  1.0000
  Pd  Pd12      1.0  0.008125000580430896  0.0093750000209274  0.9995553209940837  1.0000
