data_image0
_chemical_formula_structural       Rh6W2Rh6W2Rh6W2Rh6W2H
_chemical_formula_sum              "Rh24 W8 H1"
_cell_length_a       5.517900757320644
_cell_length_b       8.775383949279785
_cell_length_c       31.37469482421875
_cell_angle_alpha    90.0
_cell_angle_beta     59.99999888232217
_cell_angle_gamma    90.0

_space_group_name_H-M_alt    "P 1"
_space_group_IT_number       1

loop_
  _space_group_symop_operation_xyz
  'x, y, z'

loop_
  _atom_site_type_symbol
  _atom_site_label
  _atom_site_symmetry_multiplicity
  _atom_site_fract_x
  _atom_site_fract_y
  _atom_site_fract_z
  _atom_site_occupancy
  Rh  Rh1       1.0  0.006658098964390599  0.0012499998981161762  0.9985953222688375  1.0000
  Rh  Rh2       1.0  0.008332510418310003  0.0037499992698325963  0.998004314223972  1.0000
  Rh  Rh3       1.0  0.008082689133375622  0.0037499979962847996  0.9989748508584714  1.0000
  Rh  Rh4       1.0  0.0017484991420728892  0.0012500086006927882  0.9994462315241724  1.0000
  Rh  Rh5       1.0  0.0016674896440556685  0.0012499998981161762  0.9985956938992717  1.0000
  Rh  Rh6       1.0  0.003348431563255903  0.0037499992698325963  0.9980043143947154  1.0000
  W   W1        1.0  0.00688646801778649  0.0012499985184393962  0.9993944347731925  1.0000
  W   W2        1.0  0.003385497819995512  0.003750001392412258  0.9988687555164953  1.0000
  Rh  Rh7       1.0  0.006660536682539479  0.001249999473600244  0.9968337075047381  1.0000
  Rh  Rh8       1.0  0.008332510418310003  0.0037499992698325963  0.9962456038935618  1.0000
  Rh  Rh9       1.0  0.008332510418310003  0.0037499992698325963  0.9971277588420231  1.0000
  Rh  Rh10      1.0  0.0016764580223780998  0.001249999473600244  0.9977102625653503  1.0000
  Rh  Rh11      1.0  0.0016764580223780998  0.001249999473600244  0.9968337071834015  1.0000
  Rh  Rh12      1.0  0.003348431563255903  0.0037499992698325963  0.9962456035893632  1.0000
  W   W3        1.0  0.006671150540101675  0.001249999473600244  0.9977121293347347  1.0000
  W   W4        1.0  0.003337817315908265  0.0037499992698325963  0.9971258925989946  1.0000
  Rh  Rh13      1.0  0.006658098964390599  0.0062499999150968134  0.9985953222688375  1.0000
  Rh  Rh14      1.0  0.008332510418310003  0.008749999286813234  0.998004314223972  1.0000
  Rh  Rh15      1.0  0.008082689133375622  0.008749998437781369  0.9989748508584714  1.0000
  Rh  Rh16      1.0  0.0017484991420728892  0.0062500088299313914  0.9994462315241724  1.0000
  Rh  Rh17      1.0  0.0016674896440556685  0.0062499999150968134  0.9985956938992717  1.0000
  Rh  Rh18      1.0  0.003348431563255903  0.008749999286813234  0.9980043143947154  1.0000
  W   W5        1.0  0.00688646801778649  0.006249998641549017  0.9993944347731925  1.0000
  W   W6        1.0  0.003385497819995512  0.008750001833908828  0.9988687555164953  1.0000
  Rh  Rh19      1.0  0.006660536682539479  0.0062499994905808815  0.9968337075047381  1.0000
  Rh  Rh20      1.0  0.008332510418310003  0.008749999286813234  0.9962456038935618  1.0000
  Rh  Rh21      1.0  0.008332510418310003  0.008749999286813234  0.9971277588420231  1.0000
  Rh  Rh22      1.0  0.0016764580223780998  0.0062499994905808815  0.9977102625653503  1.0000
  Rh  Rh23      1.0  0.0016764580223780998  0.0062499994905808815  0.9968337071834015  1.0000
  Rh  Rh24      1.0  0.003348431563255903  0.008749999286813234  0.9962456035893632  1.0000
  W   W7        1.0  0.006671150540101675  0.0062499994905808815  0.9977121293347347  1.0000
  W   W8        1.0  0.003337817315908265  0.008749999286813234  0.9971258925989946  1.0000
  H   H1        1.0  0.008082689133375622  0.0037499979962847996  0.9994529431771404  1.0000
