data_image0
_chemical_formula_structural       COGa8
_chemical_formula_sum              "C1 O1 Ga8"
_cell_length_a       4.6332011222839355
_cell_length_b       4.666492938995361
_cell_length_c       101.39803314208984
_cell_angle_alpha    90.0
_cell_angle_beta     90.0
_cell_angle_gamma    90.0

_space_group_name_H-M_alt    "P 1"
_space_group_IT_number       1

loop_
  _space_group_symop_operation_xyz
  'x, y, z'

loop_
  _atom_site_type_symbol
  _atom_site_label
  _atom_site_symmetry_multiplicity
  _atom_site_fract_x
  _atom_site_fract_y
  _atom_site_fract_z
  _atom_site_occupancy
  C   C1        1.0  0.0024999978773279797  0.00578934498464442  0.00017081705816728607  1.0000
  O   O1        1.0  0.0024999978773279797  0.00578934498464442  0.00028916220098908663  1.0000
  Ga  Ga1       1.0  0.0024999962692431156  0.009172392278475773  0.9995900722727038  1.0000
  Ga  Ga2       1.0  0.0024999962692431156  0.004172392917120743  0.999444935380446  1.0000
  Ga  Ga3       1.0  0.002500002500571964  0.0008418251759530754  0.9998523621917644  1.0000
  Ga  Ga4       1.0  0.0024999978773279797  0.00578934498464442  0.0  1.0000
  Ga  Ga5       1.0  0.007499998456238531  0.009191524485137199  0.9999999994121715  1.0000
  Ga  Ga6       1.0  0.007500004084535555  0.004139048065825392  0.9998523621917644  1.0000
  Ga  Ga7       1.0  0.007499996044111235  0.0008084751356673507  0.999444935380446  1.0000
  Ga  Ga8       1.0  0.007499996044111235  0.005808474796387211  0.9995900722727038  1.0000
