data_image0
_chemical_formula_structural       COV18Au6V18Au6
_chemical_formula_sum              "C1 O1 V36 Au12"
_cell_length_a       4.8841705322265625
_cell_length_b       10.92133735472739
_cell_length_c       111.44355773925781
_cell_angle_alpha    71.56505196815161
_cell_angle_beta     90.0
_cell_angle_gamma    90.0

_space_group_name_H-M_alt    "P 1"
_space_group_IT_number       1

loop_
  _space_group_symop_operation_xyz
  'x, y, z'

loop_
  _atom_site_type_symbol
  _atom_site_label
  _atom_site_symmetry_multiplicity
  _atom_site_fract_x
  _atom_site_fract_y
  _atom_site_fract_z
  _atom_site_occupancy
  C   C1        1.0  0.007499995362617896  0.004643388515089172  0.9998561016350703  1.0000
  O   O1        1.0  0.007499995362617896  0.004643388515089172  0.999963779144273  1.0000
  V   V1        1.0  9.999999504940785e-11  0.0075647405853694815  0.9986749672729598  1.0000
  V   V2        1.0  9.999999504940785e-11  0.00423140753488459  0.9990881665816396  1.0000
  V   V3        1.0  9.999999504940785e-11  0.0008980743046231465  0.998881566909026  1.0000
  V   V4        1.0  9.999999504940785e-11  0.005898074239903588  0.9991914666825815  1.0000
  V   V5        1.0  9.999999504940785e-11  0.002564741009642144  0.9989848670099679  1.0000
  V   V6        1.0  9.999999504940785e-11  0.00923140729038848  0.9987782673739017  1.0000
  V   V7        1.0  0.0050000002135636495  0.0075647405853694815  0.9988299172870968  1.0000
  V   V8        1.0  0.0050000002135636495  0.00423140753488459  0.9986233173414911  1.0000
  V   V9        1.0  0.0050000002135636495  0.0008980743046231465  0.9990365169231629  1.0000
  V   V10       1.0  0.0050000002135636495  0.00923140729038848  0.9986233173597648  1.0000
  V   V11       1.0  0.0050000002135636495  0.005898074239903588  0.9990365166684446  1.0000
  V   V12       1.0  0.0050000002135636495  0.002564741009642144  0.998829916995831  1.0000
  V   V13       1.0  0.007499999938981814  0.005064740887394089  0.9988299171386782  1.0000
  V   V14       1.0  0.007499999938981814  0.0017314076571326453  0.9986233174660646  1.0000
  V   V15       1.0  0.007499999938981814  0.00839807393787898  0.9990365168168631  1.0000
  V   V16       1.0  0.0025000001067818248  0.005064740887394089  0.9988299171386782  1.0000
  V   V17       1.0  0.0025000001067818248  0.0017314076571326453  0.9986233174660646  1.0000
  V   V18       1.0  0.0025000001067818248  0.00839807393787898  0.9990365168168631  1.0000
  Au  Au1       1.0  0.0050000002135636495  0.006731407232859982  0.9986233172224889  1.0000
  Au  Au2       1.0  0.0050000002135636495  0.0033980741823750912  0.9990365170660102  1.0000
  Au  Au3       1.0  0.0050000002135636495  6.474099705778558e-05  0.9988299173920037  1.0000
  Au  Au4       1.0  9.999999504940785e-11  0.006731407232859982  0.9989332172507627  1.0000
  Au  Au5       1.0  9.999999504940785e-11  0.0033980741823750912  0.9987266170377362  1.0000
  Au  Au6       1.0  9.999999504940785e-11  6.474099705778558e-05  0.9991398163505945  1.0000
  V   V19       1.0  9.999999504940785e-11  0.0075647405853694815  0.9992947662598245  1.0000
  V   V20       1.0  0.009999993562581423  0.004429067179569265  0.9997201268738695  1.0000
  V   V21       1.0  9.999999504940785e-11  0.0008980743046231465  0.9995013658958906  1.0000
  V   V22       1.0  0.00999999737621802  0.005841499997215621  0.9997876663432501  1.0000
  V   V23       1.0  0.009999983647126268  0.002585482909100557  0.9995980008906491  1.0000
  V   V24       1.0  9.999999504940785e-11  0.00923140729038848  0.9993980663607664  1.0000
  V   V25       1.0  0.0050000002135636495  0.0075647405853694815  0.9994497162739614  1.0000
  V   V26       1.0  0.0050000002135636495  0.00423140753488459  0.9992431165957765  1.0000
  V   V27       1.0  0.004999954068560814  0.0009552500796539564  0.9996442338952849  1.0000
  V   V28       1.0  0.0050000002135636495  0.00923140729038848  0.9992431163466294  1.0000
  V   V29       1.0  0.004999998306745351  0.005914998404504675  0.9996644229840617  1.0000
  V   V30       1.0  0.0050000002135636495  0.002564741009642144  0.9994497159826956  1.0000
  V   V31       1.0  0.007499999938981814  0.005064740887394089  0.9994497161255429  1.0000
  V   V32       1.0  0.007499999938981814  0.0017314076571326453  0.9992431164529292  1.0000
  V   V33       1.0  0.0071542045422816  0.0082776214907502  0.9996599234657829  1.0000
  V   V34       1.0  0.0025000001067818248  0.005064740887394089  0.9994497161255429  1.0000
  V   V35       1.0  0.0025000001067818248  0.0017314076571326453  0.9992431164529292  1.0000
  V   V36       1.0  0.002845761371434488  0.008277632277343317  0.999659923131507  1.0000
  Au  Au7       1.0  0.0050000002135636495  0.006731407232859982  0.9992431162093535  1.0000
  Au  Au8       1.0  0.004999988772653855  0.003402800867479104  0.9996637830425682  1.0000
  Au  Au9       1.0  0.0050000002135636495  6.474099705778558e-05  0.9994497158440268  1.0000
  Au  Au10      1.0  0.009999999664399978  0.006759158979632243  0.9995442282562154  1.0000
  Au  Au11      1.0  9.999999504940785e-11  0.0033980741823750912  0.999346416024601  1.0000
  Au  Au12      1.0  0.009999940934396372  0.009935259098223787  0.9997612479511793  1.0000
