data_image0
_chemical_formula_structural       HOs36
_chemical_formula_sum              "H1 Os36"
_cell_length_a       8.689481735229492
_cell_length_b       7.321771103780645
_cell_length_c       100.4410629272461
_cell_angle_alpha    79.1066056951693
_cell_angle_beta     90.0
_cell_angle_gamma    90.0

_space_group_name_H-M_alt    "P 1"
_space_group_IT_number       1

loop_
  _space_group_symop_operation_xyz
  'x, y, z'

loop_
  _atom_site_type_symbol
  _atom_site_label
  _atom_site_symmetry_multiplicity
  _atom_site_fract_x
  _atom_site_fract_y
  _atom_site_fract_z
  _atom_site_occupancy
  H   H1        1.0  0.007500000240079055  0.004474306995273966  1.5234365280985112e-05  1.0000
  Os  Os1       1.0  0.0037500001200395277  0.005555555382844614  0.9990969008260643  1.0000
  Os  Os2       1.0  0.0037500001200395277  0.002222222204951128  0.9992805821016421  1.0000
  Os  Os3       1.0  0.0037500001200395277  0.008888888819804512  0.9991887415347078  1.0000
  Os  Os4       1.0  0.001250000004287126  0.00777777732872933  0.9993418089983974  1.0000
  Os  Os5       1.0  0.001250000004287126  0.004444444409902256  0.9992499685793307  1.0000
  Os  Os6       1.0  0.001250000004287126  0.001111111102475564  0.9991581278689027  1.0000
  Os  Os7       1.0  0.0037500001200395277  0.005555555382844614  0.99937242251714  1.0000
  Os  Os8       1.0  0.0037500001200395277  0.002222222204951128  0.9995561034960032  1.0000
  Os  Os9       1.0  0.0037500001200395277  0.008888888819804512  0.999464262929069  1.0000
  Os  Os10      1.0  0.001250000004287126  0.00777777732872933  0.9996173306894731  1.0000
  Os  Os11      1.0  0.001250000004287126  0.004444444409902256  0.9995254899736918  1.0000
  Os  Os12      1.0  0.001250000004287126  0.001111111102475564  0.9994336495599784  1.0000
  Os  Os13      1.0  0.0037500001200395277  0.005555555382844614  0.9996479442082157  1.0000
  Os  Os14      1.0  0.0037500001200395277  0.002222222204951128  0.9998316254837935  1.0000
  Os  Os15      1.0  0.0037500001200395277  0.008888888819804512  0.9997397849168591  1.0000
  Os  Os16      1.0  0.001250000004287126  0.00777777732872933  0.9998928526772634  1.0000
  Os  Os17      1.0  0.001250000004287126  0.004444444409902256  0.9998010119614821  1.0000
  Os  Os18      1.0  0.001250000004287126  0.001111111102475564  0.9997091712510541  1.0000
  Os  Os19      1.0  0.008750000137188033  0.005555555382844614  0.9990969008260643  1.0000
  Os  Os20      1.0  0.008750000137188033  0.002222222204951128  0.9992805821016421  1.0000
  Os  Os21      1.0  0.008750000137188033  0.008888888819804512  0.9991887415347078  1.0000
  Os  Os22      1.0  0.0062499999142574805  0.00777777732872933  0.9993418089983974  1.0000
  Os  Os23      1.0  0.0062499999142574805  0.004444444409902256  0.9992499685793307  1.0000
  Os  Os24      1.0  0.0062499999142574805  0.001111111102475564  0.9991581278689027  1.0000
  Os  Os25      1.0  0.008750000137188033  0.005555555382844614  0.99937242251714  1.0000
  Os  Os26      1.0  0.008750000137188033  0.002222222204951128  0.9995561034960032  1.0000
  Os  Os27      1.0  0.008750000137188033  0.008888888819804512  0.999464262929069  1.0000
  Os  Os28      1.0  0.0062499999142574805  0.00777777732872933  0.9996173306894731  1.0000
  Os  Os29      1.0  0.0062499999142574805  0.004444444409902256  0.9995254899736918  1.0000
  Os  Os30      1.0  0.0062499999142574805  0.001111111102475564  0.9994336495599784  1.0000
  Os  Os31      1.0  0.008750000137188033  0.005555555382844614  0.9996479442082157  1.0000
  Os  Os32      1.0  0.008750000137188033  0.002222222204951128  0.9998316254837935  1.0000
  Os  Os33      1.0  0.008750000137188033  0.008888888819804512  0.9997397849168591  1.0000
  Os  Os34      1.0  0.0062499999142574805  0.00777777732872933  0.9998928526772634  1.0000
  Os  Os35      1.0  0.0062499999142574805  0.004444444409902256  0.9998010119614821  1.0000
  Os  Os36      1.0  0.0062499999142574805  0.001111111102475564  0.9997091712510541  1.0000
