data_image0
_chemical_formula_structural       COCr6As6Cr6As6
_chemical_formula_sum              "C1 O1 Cr12 As12"
_cell_length_a       5.51669979095459
_cell_length_b       9.438857469063045
_cell_length_c       98.54042053222656
_cell_angle_alpha    79.10660530190076
_cell_angle_beta     90.0
_cell_angle_gamma    90.0

_space_group_name_H-M_alt    "P 1"
_space_group_IT_number       1

loop_
  _space_group_symop_operation_xyz
  'x, y, z'

loop_
  _atom_site_type_symbol
  _atom_site_label
  _atom_site_symmetry_multiplicity
  _atom_site_fract_x
  _atom_site_fract_y
  _atom_site_fract_z
  _atom_site_occupancy
  C   C1        1.0  0.009967463055210152  0.006206852297465566  0.99988656097756  1.0000
  O   O1        1.0  0.009967463055210152  0.006206852297465566  8.338662837563185e-06  1.0000
  Cr  Cr1       1.0  3.2536948904807155e-05  0.006675686828931412  0.9993795321729526  1.0000
  Cr  Cr2       1.0  3.2536948904807155e-05  0.003342353340189653  0.9992588523427913  1.0000
  Cr  Cr3       1.0  3.2536948904807155e-05  9.020100291867715e-06  0.9995002120191464  1.0000
  Cr  Cr4       1.0  0.0050325370393283705  0.006675686828931412  0.9993795321729526  1.0000
  Cr  Cr5       1.0  0.0050325370393283705  0.003342353340189653  0.9992588523427913  1.0000
  Cr  Cr6       1.0  0.0050325370393283705  9.020100291867715e-06  0.9995002120191464  1.0000
  As  As1       1.0  0.007532536998811862  0.005564575532044712  0.9992186257283171  1.0000
  As  As2       1.0  0.007532536998811862  0.0022312422442621236  0.9994599854055389  1.0000
  As  As3       1.0  0.007532536998811862  0.008897909422704815  0.9993393055512028  1.0000
  As  As4       1.0  0.0025325369110260915  0.007786798125818113  0.9991783991065672  1.0000
  As  As5       1.0  0.0025325369110260915  0.004453464637076353  0.999419758787427  1.0000
  As  As6       1.0  0.0025325369110260915  0.00112013124881418  0.9992990789554468  1.0000
  Cr  Cr7       1.0  0.009967463055210152  0.006560002270420641  0.9997075653461874  1.0000
  Cr  Cr8       1.0  0.0099445928363095  0.003268640109415935  0.9996886327221234  1.0000
  Cr  Cr9       1.0  0.0011063473457753664  0.009990980212859041  0.9998191435083692  1.0000
  Cr  Cr10      1.0  0.0050979300099236275  0.006559916661813637  0.9997075384667437  1.0000
  Cr  Cr11      1.0  0.005121531889453157  0.0032680854621029458  0.9996886155429575  1.0000
  Cr  Cr12      1.0  0.003953005376357098  0.009990546944885562  0.9998191991365074  1.0000
  As  As7       1.0  0.007533079920035321  0.005299528471329499  0.9995725723197992  1.0000
  As  As8       1.0  0.007533209572864804  0.001839891741461634  0.9998652724982511  1.0000
  As  As9       1.0  0.00753151530750453  0.008674922714639571  0.9997247124626827  1.0000
  As  As10      1.0  0.0025325369110260915  0.007786798125818113  0.9995404389200258  1.0000
  As  As11      1.0  0.002533136217724873  0.0046226473404349456  0.9998201234271354  1.0000
  As  As12      1.0  0.0025322738913537814  0.0016084842412383603  0.9996037104722557  1.0000
