data_image0
_chemical_formula_structural       HAs24Ti32
_chemical_formula_sum              "H1 As24 Ti32"
_cell_length_a       6.700092792510986
_cell_length_b       10.941205978393555
_cell_length_c       107.90145111083984
_cell_angle_alpha    90.0
_cell_angle_beta     90.0
_cell_angle_gamma    90.0

_space_group_name_H-M_alt    "P 1"
_space_group_IT_number       1

loop_
  _space_group_symop_operation_xyz
  'x, y, z'

loop_
  _atom_site_type_symbol
  _atom_site_label
  _atom_site_symmetry_multiplicity
  _atom_site_fract_x
  _atom_site_fract_y
  _atom_site_fract_z
  _atom_site_occupancy
  H   H1        1.0  0.00030968958817977624  0.007381280825388231  6.70766957374036e-05  1.0000
  As  As1       1.0  0.00016254469221695287  0.006518792765704562  0.9998762858432655  1.0000
  As  As2       1.0  0.006842015824653891  0.0015624998638069587  0.9995836856607282  1.0000
  As  As3       1.0  0.003508682795270382  0.0065624998365683505  0.9992909694744182  1.0000
  As  As4       1.0  0.0001753494010080821  0.0015624998638069587  0.9989982527357092  1.0000
  As  As5       1.0  0.0019166948064897067  0.0033706790360600826  0.999920106544582  1.0000
  As  As6       1.0  0.008508682617348533  0.008437499400750618  0.9996202754602164  1.0000
  As  As7       1.0  0.005175349587965025  0.0034374997684718297  0.9993275587215075  1.0000
  As  As8       1.0  0.0018420161415771835  0.008437499400750618  0.999034842258998  1.0000
  As  As9       1.0  0.00045146550123378133  0.009638837109505133  6.076388090979341e-09  1.0000
  As  As10      1.0  0.006842015824653891  0.004687499931903479  0.9996934545067938  1.0000
  As  As11      1.0  0.003508682795270382  0.009687499564182267  0.9994007377680849  1.0000
  As  As12      1.0  0.0001753494010080821  0.004687499931903479  0.9991080215817749  1.0000
  As  As13      1.0  0.005162687112401702  0.009106273287920545  0.9998762930244515  1.0000
  As  As14      1.0  0.0018420161415771835  0.0040624998501876545  0.9995836856607282  1.0000
  As  As15      1.0  0.008508682617348533  0.009062499482466443  0.9992909694744182  1.0000
  As  As16      1.0  0.005175349587965025  0.0040624998501876545  0.9989982527357092  1.0000
  As  As17      1.0  0.0018420161415771835  0.0009374999523324355  0.9996934545067938  1.0000
  As  As18      1.0  0.008508682617348533  0.005937499754852526  0.9994007377680849  1.0000
  As  As19      1.0  0.005175349587965025  0.0009374999523324355  0.9991080215817749  1.0000
  As  As20      1.0  0.005451443152581579  0.005986156761808002  0.0  1.0000
  As  As21      1.0  0.00691664403204216  0.0022541037905160137  0.9999201325073311  1.0000
  As  As22      1.0  0.003508682795270382  0.007187499918284175  0.9996202754602164  1.0000
  As  As23      1.0  0.0001753494010080821  0.0021874999455227836  0.9993275587215075  1.0000
  As  As24      1.0  0.006842015824653891  0.007187499918284175  0.999034842258998  1.0000
  Ti  Ti1       1.0  0.009837454691311642  0.006055658794723398  0.9996271925994595  1.0000
  Ti  Ti2       1.0  0.006504121661928134  0.0010556587368413552  0.9993344764131495  1.0000
  Ti  Ti3       1.0  0.003170788632544625  0.006055658794723398  0.9990417596744406  1.0000
  Ti  Ti4       1.0  0.0031632917286516737  0.00111362343161183  0.9999095142953416  1.0000
  Ti  Ti5       1.0  0.003170788632544625  0.002069341075893213  0.9994808345063045  1.0000
  Ti  Ti6       1.0  0.009837454691311642  0.007069340878413303  0.9991881177675956  1.0000
  Ti  Ti7       1.0  0.006504121661928134  0.002069341075893213  0.9988954015812856  1.0000
  Ti  Ti8       1.0  0.006539603170581576  0.007106558350851754  0.9997724337420036  1.0000
  Ti  Ti9       1.0  0.009522365105525805  0.002812499856997307  0.9997300443062821  1.0000
  Ti  Ti10      1.0  0.006189031520136519  0.0078125  0.9994373275675732  1.0000
  Ti  Ti11      1.0  0.0028556984907530105  0.002812499856997307  0.9991446108288642  1.0000
  Ti  Ti12      1.0  0.0028832580290970547  0.007673246019938139  0.9999911997328476  1.0000
  Ti  Ti13      1.0  0.003170788632544625  0.000312499998297587  0.9989112388582464  1.0000
  Ti  Ti14      1.0  0.0031791562414842157  0.005310277343182756  0.9997999128261478  1.0000
  Ti  Ti15      1.0  0.009837454691311642  0.000312499998297587  0.9994966717832653  1.0000
  Ti  Ti16      1.0  0.006504121661928134  0.005312499673136701  0.9992039555969553  1.0000
  Ti  Ti17      1.0  0.004837455425239268  0.009569341205276603  0.9996271925994595  1.0000
  Ti  Ti18      1.0  0.0015041219788514263  0.004569340892032607  0.9993344764131495  1.0000
  Ti  Ti19      1.0  0.008170788454622777  0.009569341205276603  0.9990417596744406  1.0000
  Ti  Ti20      1.0  0.008163106122803226  0.0045114305893580635  0.9999095148477405  1.0000
  Ti  Ti21      1.0  0.008179018452132583  0.00031499369288663095  0.999799917797738  1.0000
  Ti  Ti22      1.0  0.004837455425239268  0.005312499673136701  0.9994966717832653  1.0000
  Ti  Ti23      1.0  0.0015041219788514263  0.000312499998297587  0.9992039555969553  1.0000
  Ti  Ti24      1.0  0.008170788454622777  0.005312499673136701  0.9989112388582464  1.0000
  Ti  Ti25      1.0  0.008170788454622777  0.0035556588083427024  0.9994808345063045  1.0000
  Ti  Ti26      1.0  0.004837455425239268  0.008555658440621491  0.9991881177675956  1.0000
  Ti  Ti27      1.0  0.0015041219788514263  0.0035556588083427024  0.9988954015812856  1.0000
  Ti  Ti28      1.0  0.001539496456392814  0.008518529493659987  0.999772438161195  1.0000
  Ti  Ti29      1.0  0.0011890316980583675  0.0078125  0.9994373275675732  1.0000
  Ti  Ti30      1.0  0.007855698312831162  0.002812499856997307  0.9991446108288642  1.0000
  Ti  Ti31      1.0  0.00788326619126186  0.0079518043714872  0.9999911958660551  1.0000
  Ti  Ti32      1.0  0.004522365005444765  0.002812499856997307  0.9997300443062821  1.0000
