data_image0
_chemical_formula_structural       HV3Si6V3Si6
_chemical_formula_sum              "H1 V6 Si12"
_cell_length_a       4.582751862097735
_cell_length_b       6.397009372711182
_cell_length_c       106.66201782226562
_cell_angle_alpha    90.0
_cell_angle_beta     119.99999919767241
_cell_angle_gamma    90.0

_space_group_name_H-M_alt    "P 1"
_space_group_IT_number       1

loop_
  _space_group_symop_operation_xyz
  'x, y, z'

loop_
  _atom_site_type_symbol
  _atom_site_label
  _atom_site_symmetry_multiplicity
  _atom_site_fract_x
  _atom_site_fract_y
  _atom_site_fract_z
  _atom_site_occupancy
  H   H1        1.0  0.007779331435580636  0.001653497696433402  0.00022090190193601426  1.0000
  V   V1        1.0  0.005040743216437463  0.003336125058803246  0.999695490530286  1.0000
  V   V2        1.0  0.005040743216437463  0.00666945833778403  0.9994806647239287  1.0000
  V   V3        1.0  4.074320015777148e-05  2.7916001132815037e-06  0.9994806644218173  1.0000
  Si  Si1       1.0  0.006783905614009099  2.7916001132815037e-06  0.9996255249822582  1.0000
  Si  Si2       1.0  0.008412324762523349  0.00666945833778403  0.9993358039799135  1.0000
  Si  Si3       1.0  0.008412324762523349  0.003336125058803246  0.9995555599571907  1.0000
  Si  Si4       1.0  0.0032975805842036187  2.7916001132815037e-06  0.999335804181149  1.0000
  Si  Si5       1.0  0.0016691619050137846  0.00666945833778403  0.9996255251935761  1.0000
  Si  Si6       1.0  0.0016691619050137846  0.003336125058803246  0.9994057694957078  1.0000
  V   V4        1.0  0.004779223449664514  0.0033360819649970582  0.00010267007449928637  1.0000
  V   V5        1.0  0.00513529565981396  0.006675170596498782  0.9999108678177566  1.0000
  V   V6        1.0  0.009959256520740867  0.009997208639468626  0.9999109181580692  1.0000
  Si  Si7       1.0  0.006415248938981399  0.0099709132648121  5.78710837630074e-05  1.0000
  Si  Si8       1.0  0.008412324762523349  0.00666945833778403  0.9997654558720369  1.0000
  Si  Si9       1.0  0.008479381835015513  0.003336350718936997  0.9999909410565521  1.0000
  Si  Si10      1.0  0.0032975805842036187  2.7916001132815037e-06  0.9997654560732725  1.0000
  Si  Si11      1.0  0.0021009971555636378  0.006700842858011789  5.779878144503784e-05  1.0000
  Si  Si12      1.0  0.0016691619050137846  0.003336125058803246  0.9998354211084223  1.0000
