data_image0
_chemical_formula_structural       HAs4Ru2As4Ru2As4Ru2As4Ru2
_chemical_formula_sum              "H1 As16 Ru8"
_cell_length_a       6.052855968475342
_cell_length_b       6.273108959197998
_cell_length_c       103.07535552978516
_cell_angle_alpha    90.0
_cell_angle_beta     90.0
_cell_angle_gamma    90.0

_space_group_name_H-M_alt    "P 1"
_space_group_IT_number       1

loop_
  _space_group_symop_operation_xyz
  'x, y, z'

loop_
  _atom_site_type_symbol
  _atom_site_label
  _atom_site_symmetry_multiplicity
  _atom_site_fract_x
  _atom_site_fract_y
  _atom_site_fract_z
  _atom_site_occupancy
  H   H1        1.0  1.5000000980853293e-10  0.006539444386991367  4.4014473816370974e-05  1.0000
  As  As1       1.0  0.0025000002277201735  0.0013854029653427578  0.9993073345425411  1.0000
  As  As2       1.0  0.0025000002277201735  0.008691712625011755  0.9991245144419703  1.0000
  As  As3       1.0  1.5000000980853293e-10  0.006385403072235889  0.999391918778612  1.0000
  As  As4       1.0  1.5000000980853293e-10  0.0036917125181186233  0.9990399302058993  1.0000
  Ru  Ru1       1.0  0.0025000002277201735  0.005038557943639937  0.9992159244922556  1.0000
  Ru  Ru2       1.0  1.5000000980853293e-10  3.855765116845499e-05  0.9994833291180287  1.0000
  As  As5       1.0  0.0025000000738551915  0.0013456262499845124  0.9998458871783906  1.0000
  As  As6       1.0  0.0025000002277201735  0.008691712625011755  0.9996593234043851  1.0000
  As  As7       1.0  1.5000000980853293e-10  0.006539444386991367  0.9999244852378479  1.0000
  As  As8       1.0  1.5000000980853293e-10  0.0036917125181186233  0.9995747385900513  1.0000
  Ru  Ru3       1.0  0.0025000002277201735  0.005017096772317747  0.9997528470052426  1.0000
  Ru  Ru4       1.0  0.010000000295420766  0.009961442673964817  0.0  1.0000
  As  As9       1.0  0.007500000221565575  0.0013854029653427578  0.9993073345425411  1.0000
  As  As10      1.0  0.007500000221565575  0.008691712625011755  0.9991245144419703  1.0000
  As  As11      1.0  0.005000000455440347  0.006385403072235889  0.999391918778612  1.0000
  As  As12      1.0  0.005000000455440347  0.0036917125181186233  0.9990399302058993  1.0000
  Ru  Ru5       1.0  0.007500000221565575  0.005038557943639937  0.9992159244922556  1.0000
  Ru  Ru6       1.0  0.005000000455440347  3.855765116845499e-05  0.9994833291180287  1.0000
  As  As13      1.0  0.007500000221565575  0.0013456262499845124  0.9998458871783906  1.0000
  As  As14      1.0  0.007500000221565575  0.008691712625011755  0.9996593234043851  1.0000
  As  As15      1.0  0.005000000455440347  0.006539444386991367  0.9999244852378479  1.0000
  As  As16      1.0  0.005000000455440347  0.0036917125181186233  0.9995747385900513  1.0000
  Ru  Ru7       1.0  0.007500000221565575  0.005017096772317747  0.9997528470052426  1.0000
  Ru  Ru8       1.0  0.005000000147710383  0.009961442673964817  0.0  1.0000
