data_image0
_chemical_formula_structural       HPt12Rh4
_chemical_formula_sum              "H1 Pt12 Rh4"
_cell_length_a       4.84872579574585
_cell_length_b       4.848726138672282
_cell_length_c       103.52444458007812
_cell_angle_alpha    90.0
_cell_angle_beta     90.0
_cell_angle_gamma    109.63640080395203

_space_group_name_H-M_alt    "P 1"
_space_group_IT_number       1

loop_
  _space_group_symop_operation_xyz
  'x, y, z'

loop_
  _atom_site_type_symbol
  _atom_site_label
  _atom_site_symmetry_multiplicity
  _atom_site_fract_x
  _atom_site_fract_y
  _atom_site_fract_z
  _atom_site_occupancy
  H   H1        1.0  0.0016666664869534331  0.0033333330043169387  8.637984282146952e-05  1.0000
  Pt  Pt1       1.0  0.005000000374531181  1.999999946337879e-10  0.9990758049450533  1.0000
  Pt  Pt2       1.0  3.621472779393078e-11  0.005000000016314863  0.9993456641550698  1.0000
  Pt  Pt3       1.0  3.621472779393078e-11  0.005000000016314863  0.9990758049450533  1.0000
  Pt  Pt4       1.0  0.005000000374531181  1.999999946337879e-10  0.9993456641550698  1.0000
  Pt  Pt5       1.0  2.0000000345641757e-10  1.999999946337879e-10  0.9992107346940001  1.0000
  Pt  Pt6       1.0  0.0050000003435359056  0.005000000016314863  0.9994805936161394  1.0000
  Pt  Pt7       1.0  0.005000000374531181  1.999999946337879e-10  0.9996155233650862  1.0000
  Pt  Pt8       1.0  0.00999999988255414  0.005000000016314863  0.9998936069374912  1.0000
  Pt  Pt9       1.0  3.621472779393078e-11  0.005000000016314863  0.9996155233650862  1.0000
  Pt  Pt10      1.0  0.005000000105620132  0.009999999216886598  0.9998936069374912  1.0000
  Pt  Pt11      1.0  0.009999999644638366  0.009999999216886598  0.99974597374553  1.0000
  Pt  Pt12      1.0  0.005000000206470655  0.004999999608443299  8.501588086981977e-06  1.0000
  Rh  Rh1       1.0  0.0050000003435359056  0.005000000016314863  0.9992107346940001  1.0000
  Rh  Rh2       1.0  2.0000000345641757e-10  1.999999946337879e-10  0.9994805936161394  1.0000
  Rh  Rh3       1.0  0.004999999822319183  0.004999999608443299  0.9997472772532794  1.0000
  Rh  Rh4       1.0  0.009999999644638366  0.009999999216886598  0.0  1.0000
