data_image0
_chemical_formula_structural       HCu12Ru4Cu12Ru4
_chemical_formula_sum              "H1 Cu24 Ru8"
_cell_length_a       5.301018554964073
_cell_length_b       6.791891283845206
_cell_length_c       110.75135040283203
_cell_angle_alpha    102.61133004169744
_cell_angle_beta     67.03018753083377
_cell_angle_gamma    112.96981498795698

_space_group_name_H-M_alt    "P 1"
_space_group_IT_number       1

loop_
  _space_group_symop_operation_xyz
  'x, y, z'

loop_
  _atom_site_type_symbol
  _atom_site_label
  _atom_site_symmetry_multiplicity
  _atom_site_fract_x
  _atom_site_fract_y
  _atom_site_fract_z
  _atom_site_occupancy
  H   H1        1.0  0.009260476115355036  0.003166601640568843  0.0001768278194080218  1.0000
  Cu  Cu1       1.0  0.007360851902850514  0.00957199903200132  0.9999237253796138  1.0000
  Cu  Cu2       1.0  0.007360851589098801  0.004571998864689602  0.9996170975343273  1.0000
  Cu  Cu3       1.0  0.002428859119491067  0.0021060024976867005  0.9997683262215055  1.0000
  Cu  Cu4       1.0  0.0024288594755811177  0.007106002963769345  0.9994616983721879  1.0000
  Cu  Cu5       1.0  0.0024288593058642955  0.00957199903200132  0.9999237253490747  1.0000
  Cu  Cu6       1.0  0.0024288592067820067  0.004571998864689602  0.9996170974997782  1.0000
  Cu  Cu7       1.0  0.0007848615742217172  0.00042800122792938534  0.9995646024438696  1.0000
  Cu  Cu8       1.0  0.0007848617792972241  0.005428001469933836  0.9998712308303705  1.0000
  Cu  Cu9       1.0  0.005716854206566619  0.00789399753816581  0.9997200021399827  1.0000
  Cu  Cu10      1.0  0.005716854221379144  0.0028939976696250183  2.662999037309399e-05  1.0000
  Cu  Cu11      1.0  0.005716854028094987  0.00042800122792938534  0.9995646024770819  1.0000
  Cu  Cu12      1.0  0.005716854185466177  0.005428001469933836  0.9998712303262897  1.0000
  Ru  Ru1       1.0  0.0007395236733623852  0.00791666708096235  0.9997186117351073  1.0000
  Ru  Ru2       1.0  0.0007395235027236217  0.002916666913650632  2.5239584961386912e-05  1.0000
  Ru  Ru3       1.0  0.00740619033635892  0.0020833334030465494  0.9997697166196114  1.0000
  Ru  Ru4       1.0  0.007406190008785352  0.007083333420972805  0.9994630882388789  1.0000
  Cu  Cu13      1.0  0.007360851902850514  0.00957199903200132  0.9993104696818  1.0000
  Cu  Cu14      1.0  0.007360851589098801  0.004571998864689602  0.9990038418365134  1.0000
  Cu  Cu15      1.0  0.002428859119491067  0.0021060024976867005  0.9991550705236917  1.0000
  Cu  Cu16      1.0  0.0024288594755811177  0.007106002963769345  0.9988484424052819  1.0000
  Cu  Cu17      1.0  0.0024288593058642955  0.00957199903200132  0.9993104696512609  1.0000
  Cu  Cu18      1.0  0.0024288592067820067  0.004571998864689602  0.9990038415328722  1.0000
  Cu  Cu19      1.0  0.0007848615742217172  0.00042800122792938534  0.9989513467460557  1.0000
  Cu  Cu20      1.0  0.0007848617792972241  0.005428001469933836  0.9992579745943724  1.0000
  Cu  Cu21      1.0  0.005716854206566619  0.00789399753816581  0.9991067459039845  1.0000
  Cu  Cu22      1.0  0.005716854221379144  0.0028939976696250183  0.9994133737543749  1.0000
  Cu  Cu23      1.0  0.005716854028094987  0.00042800122792938534  0.9989513467792681  1.0000
  Cu  Cu24      1.0  0.005716854185466177  0.005428001469933836  0.9992579746284758  1.0000
  Ru  Ru5       1.0  0.0007395236733623852  0.00791666708096235  0.9991053557682014  1.0000
  Ru  Ru6       1.0  0.0007395235027236217  0.002916666913650632  0.9994119838871476  1.0000
  Ru  Ru7       1.0  0.00740619033635892  0.0020833334030465494  0.9991564603836133  1.0000
  Ru  Ru8       1.0  0.007406190008785352  0.007083333420972805  0.9988498325410651  1.0000
