data_image0
_chemical_formula_structural       COAl12Fe4Si8
_chemical_formula_sum              "C1 O1 Al12 Fe4 Si8"
_cell_length_a       6.094736099243164
_cell_length_b       6.101504325866699
_cell_length_c       31.88334083557129
_cell_angle_alpha    90.0
_cell_angle_beta     90.0
_cell_angle_gamma    90.0

_space_group_name_H-M_alt    "P 1"
_space_group_IT_number       1

loop_
  _space_group_symop_operation_xyz
  'x, y, z'

loop_
  _atom_site_type_symbol
  _atom_site_label
  _atom_site_symmetry_multiplicity
  _atom_site_fract_x
  _atom_site_fract_y
  _atom_site_fract_z
  _atom_site_occupancy
  C   C1        1.0  0.00856071004244543  0.000966038325778956  0.0003939270981014478  1.0000
  O   O1        1.0  0.00856071004244543  0.000966038325778956  0.0007702994951918374  1.0000
  Al  Al1       1.0  0.00021733754407609603  5.582074949397876e-05  0.9977848868259301  1.0000
  Al  Al2       1.0  0.005217337577693789  0.0050558207140056  0.9977848868259301  1.0000
  Al  Al3       1.0  0.0005193311241798555  8.314785078871596e-05  0.9992871443508524  1.0000
  Al  Al4       1.0  0.0049152865800986545  0.005082456688657247  0.9992872714741632  1.0000
  Al  Al5       1.0  0.001621268250275318  0.006391780974191339  0.9981919859086951  1.0000
  Al  Al6       1.0  0.006621268054681469  0.008719860160754538  0.9973777875094827  1.0000
  Al  Al7       1.0  0.008813406293881481  0.006391780974191339  0.9988721675954246  1.0000
  Al  Al8       1.0  0.0028500154015486967  0.007518959055218353  0.9999505438911027  1.0000
  Al  Al9       1.0  0.008813406293881481  0.003719860148543481  0.9973777875094827  1.0000
  Al  Al10      1.0  0.0038134064894753297  0.0013917812672566633  0.9981919859086951  1.0000
  Al  Al11      1.0  0.002585357058137064  0.0025194000147372784  0.9999504803294473  1.0000
  Al  Al12      1.0  0.006621268054681469  0.0013917812672566633  0.9988721675954246  1.0000
  Fe  Fe1       1.0  0.009782661835524663  0.009861034553222304  0.0  1.0000
  Fe  Fe2       1.0  0.005217337577693789  0.004944179005140131  0.9985320767520598  1.0000
  Fe  Fe3       1.0  0.00021733754407609603  0.009944179017351187  0.9985320767520598  1.0000
  Fe  Fe4       1.0  0.005651373776873422  0.0048617433927641155  0.9999999397099004  1.0000
  Si  Si1       1.0  0.0018452753154087741  0.006767518194667587  0.9973233016172388  1.0000
  Si  Si2       1.0  0.00684527496700723  0.00834412294027829  0.998246472268304  1.0000
  Si  Si3       1.0  0.008096375133512362  0.007071502644387034  0.9997012620892025  1.0000
  Si  Si4       1.0  0.0035893995771495687  0.00834412294027829  0.9988176812358156  1.0000
  Si  Si5       1.0  0.00858939938155572  0.0033441229280672335  0.998246472268304  1.0000
  Si  Si6       1.0  0.0035893995771495687  0.001767518487732911  0.9973233016172388  1.0000
  Si  Si7       1.0  0.0018452753154087741  0.0033441229280672335  0.9988176812358156  1.0000
  Si  Si8       1.0  0.007338758249366198  0.0020710419701195286  0.9997013621053367  1.0000
