data_image0
_chemical_formula_structural       COAl36Co8
_chemical_formula_sum              "C1 O1 Al36 Co8"
_cell_length_a       6.235510872611789
_cell_length_b       10.67880905240698
_cell_length_c       102.03643035888672
_cell_angle_alpha    72.51331219916021
_cell_angle_beta     93.93398409012902
_cell_angle_gamma    93.93398388913077

_space_group_name_H-M_alt    "P 1"
_space_group_IT_number       1

loop_
  _space_group_symop_operation_xyz
  'x, y, z'

loop_
  _atom_site_type_symbol
  _atom_site_label
  _atom_site_symmetry_multiplicity
  _atom_site_fract_x
  _atom_site_fract_y
  _atom_site_fract_z
  _atom_site_occupancy
  C   C1        1.0  0.006732291327867997  0.0017051567614153914  0.999899067289419  1.0000
  O   O1        1.0  0.006732291327867997  0.0017051567614153914  1.6671998559117863e-05  1.0000
  Al  Al1       1.0  0.004759913704937155  0.005120044889943032  0.9991195289779385  1.0000
  Al  Al2       1.0  0.004984319602088074  0.00022959435210695406  0.9996547738229535  1.0000
  Al  Al3       1.0  0.00488356745134881  0.005086280004169137  0.9996713598535514  1.0000
  Al  Al4       1.0  0.004759913885805951  0.00012004504970540997  0.9991195288451595  1.0000
  Al  Al5       1.0  0.0007034696339994525  0.008613679848433541  0.9995205700157578  1.0000
  Al  Al6       1.0  0.0007034696241743401  0.003613679950974436  0.9989972857077464  1.0000
  Al  Al7       1.0  0.008920590340273234  0.0066315951022624525  0.9997730908078555  1.0000
  Al  Al8       1.0  0.008816357730585684  0.0012880832967057255  0.9992771802892951  1.0000
  Al  Al9       1.0  0.009300336748598686  0.0018861612175731703  0.9997481544545955  1.0000
  Al  Al10      1.0  0.008816357628803319  0.006626410195129113  0.999241771943881  1.0000
  Al  Al11      1.0  0.0007034696384266501  0.003952006677275606  0.9994851617080261  1.0000
  Al  Al12      1.0  0.0007034696515922558  0.008952006940952195  0.9989618773599946  1.0000
  Al  Al13      1.0  0.0038834723393443697  0.0054225061069841625  0.9988479167752062  1.0000
  Al  Al14      1.0  0.003883472227407288  0.00042250634685661413  0.9993712011069882  1.0000
  Al  Al15      1.0  0.0055103583739684915  0.0077775606547560786  0.9996090167786463  1.0000
  Al  Al16      1.0  0.005636355309587717  0.002715307630362174  0.9990878740902167  1.0000
  Al  Al17      1.0  0.0056363550705299395  0.004817583672901903  0.9993911405965202  1.0000
  Al  Al18      1.0  0.005636355224049249  0.009817583936578491  0.9988678565411525  1.0000
  Al  Al19      1.0  0.0038830329278070385  0.00253615916441147  0.9996935806599575  1.0000
  Al  Al20      1.0  0.003883472085165783  0.00752478196641515  0.9991511832872048  1.0000
  Al  Al21      1.0  0.0009492510533953436  0.0010928750038906945  0.9995384404936338  1.0000
  Al  Al22      1.0  0.0008583620358523677  0.006090378762981326  0.9990204222997818  1.0000
  Al  Al23      1.0  0.008592933694441137  0.006073923512789041  0.9995319099320225  1.0000
  Al  Al24      1.0  0.008661465288613945  0.0010670112603262784  0.9990179767058821  1.0000
  Al  Al25      1.0  0.008750933990902099  0.009210331626865331  0.9997470453770215  1.0000
  Al  Al26      1.0  0.008661465703684795  0.0041497113831222236  0.9992186353538854  1.0000
  Al  Al27      1.0  0.0006996635370314459  0.004324456083832186  0.9997384189769516  1.0000
  Al  Al28      1.0  0.0008583620089774024  0.009173078519559787  0.9992210809574489  1.0000
  Al  Al29      1.0  0.0026147432709459355  0.008088910702560058  0.9997950084741332  1.0000
  Al  Al30      1.0  0.0026005201016030695  0.0029703244568543537  0.9992984686304854  1.0000
  Al  Al31      1.0  0.0069193072001809495  0.0034102655483404264  0.9988212277831103  1.0000
  Al  Al32      1.0  0.0069193076531214905  0.008410265812017014  0.9993445120814629  1.0000
  Al  Al33      1.0  0.00691930720011436  0.002269765608681349  0.9994638730715992  1.0000
  Al  Al34      1.0  0.006919307637934093  0.007269765689249195  0.9989405887311065  1.0000
  Al  Al35      1.0  0.0026005200599827434  0.0068298242315456385  0.9994178298800638  1.0000
  Al  Al36      1.0  0.002600520086415671  0.0018298243340865343  0.9988945458642797  1.0000
  Co  Co1       1.0  0.0021011766285930675  0.0065616504926275555  0.9996611696164862  1.0000
  Co  Co2       1.0  0.002122651689722924  0.0015448148450106672  0.9991446558973939  1.0000
  Co  Co3       1.0  0.007397175752262985  0.004879954904975176  0.9989704170144532  1.0000
  Co  Co4       1.0  0.007397175545877822  0.009879954436216797  0.9994937013330749  1.0000
  Co  Co5       1.0  0.007349006152727018  0.003731566091392321  0.9996127071217777  1.0000
  Co  Co6       1.0  0.007397176049814238  0.008695275301092882  0.9990944017562733  1.0000
  Co  Co7       1.0  0.002122651687852944  0.005360135241128373  0.9992686406379587  1.0000
  Co  Co8       1.0  0.002049869199423267  0.00036653023336854644  0.9997761560329343  1.0000
