data_image0
_chemical_formula_structural       COGa20Pd4
_chemical_formula_sum              "C1 O1 Ga20 Pd4"
_cell_length_a       6.897856712341309
_cell_length_b       6.897856485355825
_cell_length_c       107.18059539794922
_cell_angle_alpha    90.0
_cell_angle_beta     90.0
_cell_angle_gamma    95.28246073304031

_space_group_name_H-M_alt    "P 1"
_space_group_IT_number       1

loop_
  _space_group_symop_operation_xyz
  'x, y, z'

loop_
  _atom_site_type_symbol
  _atom_site_label
  _atom_site_symmetry_multiplicity
  _atom_site_fract_x
  _atom_site_fract_y
  _atom_site_fract_z
  _atom_site_occupancy
  C   C1        1.0  0.0020676793224949246  0.005608232941377144  0.00011066170909446823  1.0000
  O   O1        1.0  0.0020676793224949246  0.005608232941377144  0.00022262250082304895  1.0000
  Ga  Ga1       1.0  0.005043976942765813  0.005043978895951075  0.9995447610711203  1.0000
  Ga  Ga2       1.0  0.009956022811984433  0.009956021255912075  0.0  1.0000
  Ga  Ga3       1.0  4.39771498236511e-05  4.397860239418071e-05  0.9995447610711203  1.0000
  Ga  Ga4       1.0  0.005131932745148148  0.005131938032926846  0.0  1.0000
  Ga  Ga5       1.0  0.0011495638220863  0.003938392107062862  0.9992014826559121  1.0000
  Ga  Ga6       1.0  0.006149563883674868  0.008938392248078644  0.9996351034817195  1.0000
  Ga  Ga7       1.0  0.004691284500830491  0.007480112782774393  0.9993279505191882  1.0000
  Ga  Ga8       1.0  0.009744369475623602  0.002440077718614208  0.9997599477697598  1.0000
  Ga  Ga9       1.0  0.002647879688722221  0.005343565842065377  0.9997599466575315  1.0000
  Ga  Ga10      1.0  0.00760784306605093  0.00039667129575923104  0.9993279505191882  1.0000
  Ga  Ga11      1.0  0.00039666985742532664  0.007607844878959341  0.9993279505191882  1.0000
  Ga  Ga12      1.0  0.005343583778595864  0.0026478788475353668  0.9997599477697598  1.0000
  Ga  Ga13      1.0  0.002440073708240513  0.00974439127729996  0.9997599466575315  1.0000
  Ga  Ga14      1.0  0.007480110790650392  0.004691285948350839  0.9993279505191882  1.0000
  Ga  Ga15      1.0  0.0039383905169548756  0.0011495652726393071  0.9992014826559121  1.0000
  Ga  Ga16      1.0  0.00893839044352722  0.006149565413655089  0.9996351034817195  1.0000
  Ga  Ga17      1.0  0.009003426105066365  0.006084527849827441  0.9998981210015393  1.0000
  Ga  Ga18      1.0  0.0039383905169548756  0.0011495652726393071  0.9994544186605212  1.0000
  Ga  Ga19      1.0  0.0060845301918653755  0.009003433608485064  0.9998981210015393  1.0000
  Ga  Ga20      1.0  0.0011495638220863  0.003938392107062862  0.9994544186605212  1.0000
  Pd  Pd1       1.0  0.0025439771960049373  0.007543978830866867  0.9995447610711203  1.0000
  Pd  Pd2       1.0  0.007543977869523618  0.002543980045772074  0.9999510508332814  1.0000
  Pd  Pd3       1.0  0.0025439779709531913  0.007543979915603659  0.9999510502771672  1.0000
  Pd  Pd4       1.0  0.007543977204624806  0.0025439786898510844  0.9995447610711203  1.0000
