data_image0
_chemical_formula_structural       HV18Sb6
_chemical_formula_sum              "H1 V18 Sb6"
_cell_length_a       7.000800972508641
_cell_length_b       7.000801086425781
_cell_length_c       104.29678344726562
_cell_angle_alpha    90.0
_cell_angle_beta     90.0
_cell_angle_gamma    59.99999946172606

_space_group_name_H-M_alt    "P 1"
_space_group_IT_number       1

loop_
  _space_group_symop_operation_xyz
  'x, y, z'

loop_
  _atom_site_type_symbol
  _atom_site_label
  _atom_site_symmetry_multiplicity
  _atom_site_fract_x
  _atom_site_fract_y
  _atom_site_fract_z
  _atom_site_occupancy
  H   H1        1.0  0.0012500000276499453  0.00833333307827907  4.9621396993267495e-05  1.0000
  V   V1        1.0  0.005833333513570013  0.00041666643110125544  0.9995889518644241  1.0000
  V   V2        1.0  0.009166666511007716  0.0037500001133043714  0.999862983954808  1.0000
  V   V3        1.0  0.0025000000552998906  0.007083333341158283  0.9993149200597854  1.0000
  V   V4        1.0  0.004166666707629548  0.0037500000575633285  0.9994519358192321  1.0000
  V   V5        1.0  0.007500000319510478  0.007083332634359684  0.999725967909616  1.0000
  V   V6        1.0  0.000833333326164829  0.000416666633889151  0.0  1.0000
  V   V7        1.0  0.000833333326164829  0.007916666705725814  0.9995889518644241  1.0000
  V   V8        1.0  0.004166666707629548  0.001249999834071488  0.999862983954808  1.0000
  V   V9        1.0  0.007500000319510478  0.00458333320905299  0.9993149200597854  1.0000
  V   V10       1.0  0.009166666511007716  0.006249999538611065  0.9994519358192321  1.0000
  V   V11       1.0  0.0025000000552998906  0.009583332766464977  0.999725967909616  1.0000
  V   V12       1.0  0.005833333513570013  0.0029166666545930964  0.0  1.0000
  V   V13       1.0  0.008333333415259096  0.002916666682463618  0.9995889518644241  1.0000
  V   V14       1.0  0.001666666652329658  0.006250000063928336  0.999862983954808  1.0000
  V   V15       1.0  0.005000000110599781  0.009583333249653526  0.9993149200597854  1.0000
  V   V16       1.0  0.001666666652329658  0.001250000016037228  0.9994519358192321  1.0000
  V   V17       1.0  0.005000000110599781  0.004583333334793275  0.999725967909616  1.0000
  V   V18       1.0  0.008333333415259096  0.007916666597323868  0.0  1.0000
  Sb  Sb1       1.0  0.008333333415259096  0.0004166667250334925  0.9993834280823815  1.0000
  Sb  Sb2       1.0  0.001666666652329658  0.003750000106498211  0.99965745988702  1.0000
  Sb  Sb3       1.0  0.005000000110599781  0.007083333292223401  0.999931491977404  1.0000
  Sb  Sb4       1.0  0.008333333415259096  0.0004166667250334925  0.999794475932212  1.0000
  Sb  Sb5       1.0  0.001666666652329658  0.003750000106498211  0.9992464120371894  1.0000
  Sb  Sb6       1.0  0.005000000110599781  0.007083333292223401  0.999520443841828  1.0000
