data_image0
_chemical_formula_structural       HAl8Fe12Si16
_chemical_formula_sum              "H1 Al8 Fe12 Si16"
_cell_length_a       6.407843931187064
_cell_length_b       10.130282402038574
_cell_length_c       41.756134033203125
_cell_angle_alpha    90.0
_cell_angle_beta     85.88521442752403
_cell_angle_gamma    90.0

_space_group_name_H-M_alt    "P 1"
_space_group_IT_number       1

loop_
  _space_group_symop_operation_xyz
  'x, y, z'

loop_
  _atom_site_type_symbol
  _atom_site_label
  _atom_site_symmetry_multiplicity
  _atom_site_fract_x
  _atom_site_fract_y
  _atom_site_fract_z
  _atom_site_occupancy
  H   H1        1.0  0.00502735560521392  0.008872252661387933  0.00023755374795481686  1.0000
  Al  Al1       1.0  0.006044932164780119  0.001092387666587102  0.9990255312507208  1.0000
  Al  Al2       1.0  0.0038841852958272425  0.008907612881342593  0.999122966433507  1.0000
  Al  Al3       1.0  0.0038841852958272425  0.006092387986519205  0.999122966433507  1.0000
  Al  Al4       1.0  0.006044932164780119  0.003907612469475977  0.9990255312507208  1.0000
  Al  Al5       1.0  0.007836754825183683  0.0011172890486561334  0.9999137708913541  1.0000
  Al  Al6       1.0  0.005221811539123531  0.008872252661387933  0.9999414231402293  1.0000
  Al  Al7       1.0  0.0052215364261183  0.006127704445645892  0.9999414918321469  1.0000
  Al  Al8       1.0  0.007835196822931599  0.0038824433741064023  0.9999137234552005  1.0000
  Fe  Fe1       1.0  0.00710915203606379  0.0025000000220642827  0.9985266084504211  1.0000
  Fe  Fe2       1.0  0.0015699651505962995  0.007500000617799924  0.9987763889091386  1.0000
  Fe  Fe3       1.0  0.0077690461339702975  0.006253762842824827  0.9989477851398197  1.0000
  Fe  Fe4       1.0  0.000910071125548109  0.003746237613170355  0.9983552122189376  1.0000
  Fe  Fe5       1.0  0.000910071125548109  0.0012537626148272358  0.9983552122189376  1.0000
  Fe  Fe6       1.0  0.0077690461339702975  0.00874623765729892  0.9989477851398197  1.0000
  Fe  Fe7       1.0  0.00841264270064952  0.0024998417108336736  0.9993762942220745  1.0000
  Fe  Fe8       1.0  0.0027768443753062146  0.007500066075172859  0.9996383589514456  1.0000
  Fe  Fe9       1.0  0.008904686390571834  0.0062562369844265464  0.9997485684637883  1.0000
  Fe  Fe10      1.0  0.002160071035203796  0.003746237613170355  0.999200712547617  1.0000
  Fe  Fe11      1.0  0.002160071035203796  0.0012537626148272358  0.999200712547617  1.0000
  Fe  Fe12      1.0  0.008904200862746924  0.008743247211474726  0.9997486248413432  1.0000
  Si  Si1       1.0  0.000956001810066383  0.00513286269845028  0.9988040744469802  1.0000
  Si  Si2       1.0  0.007723115668026975  0.004867137757544902  0.9984989225525087  1.0000
  Si  Si3       1.0  0.005189357530370797  0.007500000617799924  0.9986131783091995  1.0000
  Si  Si4       1.0  0.0034897598020059263  0.0025000000220642827  0.9986898190487556  1.0000
  Si  Si5       1.0  0.008846878270347563  0.007500000617799924  0.9984482485292303  1.0000
  Si  Si6       1.0  0.00983223921357446  0.0025000000220642827  0.9988547486843113  1.0000
  Si  Si7       1.0  0.000956001810066383  0.009867137801673467  0.9988040744469802  1.0000
  Si  Si8       1.0  0.007723115668026975  0.00013286250492813116  0.9984989225525087  1.0000
  Si  Si9       1.0  0.0020119213704369197  0.005141162178505156  0.9996709592043704  1.0000
  Si  Si10      1.0  0.008952392267985358  0.004812846015028095  0.9993382489767225  1.0000
  Si  Si11      1.0  0.006419105669357216  0.007499814542346525  0.9994429734773033  1.0000
  Si  Si12      1.0  0.004846676887627734  0.0025000051703969856  0.9995090818191861  1.0000
  Si  Si13      1.0  0.00016776099261457737  0.0074998991220980695  0.9992850215299424  1.0000
  Si  Si14      1.0  0.0013795958396907752  0.0025003140703591504  0.999708473634546  1.0000
  Si  Si15      1.0  0.0020124931625092337  0.009858826186262935  0.9996709746766931  1.0000
  Si  Si16      1.0  0.008952517001424172  0.00018770740591513184  0.9993381433996418  1.0000
