data_image0
_chemical_formula_structural       COCa8In32Pd8
_chemical_formula_sum              "C1 O1 Ca8 In32 Pd8"
_cell_length_a       17.133424758911133
_cell_length_b       8.994815719005436
_cell_length_c       105.97926330566406
_cell_angle_alpha    61.187838026766656
_cell_angle_beta     90.0
_cell_angle_gamma    90.0

_space_group_name_H-M_alt    "P 1"
_space_group_IT_number       1

loop_
  _space_group_symop_operation_xyz
  'x, y, z'

loop_
  _atom_site_type_symbol
  _atom_site_label
  _atom_site_symmetry_multiplicity
  _atom_site_fract_x
  _atom_site_fract_y
  _atom_site_fract_z
  _atom_site_occupancy
  C   C1        1.0  0.0008777378341527559  0.002099841121531233  0.9998907815914543  1.0000
  O   O1        1.0  0.0008777378341527559  0.002099841121531233  4.010956707044346e-06  1.0000
  Ca  Ca1       1.0  0.0037328261960654133  0.001374244699750331  0.9994132192919423  1.0000
  Ca  Ca2       1.0  0.0037328261960654133  0.006374244737564313  0.9989888520340364  1.0000
  Ca  Ca3       1.0  0.0012836583560168382  0.001374244699750331  0.9989888524180274  1.0000
  Ca  Ca4       1.0  0.0012836583560168382  0.006374244737564313  0.9994132189079513  1.0000
  Ca  Ca5       1.0  0.008732825882968755  0.0038742447186573222  0.9992010356629893  1.0000
  Ca  Ca6       1.0  0.008709622811482192  0.008935181987802965  0.9996147545253847  1.0000
  Ca  Ca7       1.0  0.006283658151634298  0.008874244756471304  0.9992010358414164  1.0000
  Ca  Ca8       1.0  0.006306846438000906  0.003935199202618083  0.999614754766095  1.0000
  In  In1       1.0  0.0017649193375342278  0.002377122067707235  0.9995081966169365  1.0000
  In  In2       1.0  0.0018353895678030433  0.0073757556027615225  0.9990738539668793  1.0000
  In  In3       1.0  0.003064817299681315  0.0004113999010419446  0.9997584130620195  1.0000
  In  In4       1.0  0.0031810948755650907  0.005372734345041873  0.9993282175181922  1.0000
  In  In5       1.0  0.0031810948755650907  0.0023757553286101554  0.9990738537981194  1.0000
  In  In6       1.0  0.0032515429281539743  0.0073771239962202965  0.9995081972804447  1.0000
  In  In7       1.0  0.0018353895678030433  0.0003727341004326797  0.9993282173482239  1.0000
  In  In8       1.0  0.0019516382257316136  0.005411395359819093  0.9997584134277467  1.0000
  In  In9       1.0  0.0006658029782296797  0.0038742447186573222  0.9992010356629893  1.0000
  In  In10      1.0  0.000689817546244933  0.008834050384740626  0.9996386534395385  1.0000
  In  In11      1.0  0.004350681573852572  0.008874244756471304  0.9992010358414164  1.0000
  In  In12      1.0  0.004326641403662691  0.0038340494015771036  0.99963865329978  1.0000
  In  In13      1.0  8.24229924479512e-06  0.007624244983355194  0.9990949439280593  1.0000
  In  In14      1.0  0.009946147618366957  0.0024449116651777034  0.999527460424143  1.0000
  In  In15      1.0  8.24229924479512e-06  0.0001242447050679221  0.9993071273876482  1.0000
  In  In16      1.0  0.009991757104288406  0.005231513776722536  0.9997157053872786  1.0000
  In  In17      1.0  0.006835389254706385  0.004875755583854531  0.9992860370334142  1.0000
  In  In18      1.0  0.006863648402360988  0.009762108536049552  0.9997282891951778  1.0000
  In  In19      1.0  0.008181094779896668  0.007872734363948865  0.9991160338892393  1.0000
  In  In20      1.0  0.00813479561161498  0.0028251251052892504  0.9995573364241206  1.0000
  In  In21      1.0  0.008181094779896668  0.009875755621668513  0.9992860372118413  1.0000
  In  In22      1.0  0.008152822151691518  0.004762104716837411  0.9997282891714244  1.0000
  In  In23      1.0  0.006835389254706385  0.0028727340897974976  0.9991160342828974  1.0000
  In  In24      1.0  0.0068816740727245885  0.007825128924501391  0.9995573370102919  1.0000
  In  In25      1.0  0.005665802773847139  0.001374244699750331  0.9994132192919423  1.0000
  In  In26      1.0  0.005665802773847139  0.006374244737564313  0.9989888520340364  1.0000
  In  In27      1.0  0.009350681260755915  0.001374244699750331  0.9989888524180274  1.0000
  In  In28      1.0  0.009350681260755915  0.006374244737564313  0.9994132189079513  1.0000
  In  In29      1.0  0.005024711275481754  0.00023151780095735777  0.9997157050426982  1.0000
  In  In30      1.0  0.005008241956421621  0.005124244964448203  0.9993071275570122  1.0000
  In  In31      1.0  0.005008241956421621  0.0026242447092038267  0.9990949440405084  1.0000
  In  In32      1.0  0.005070316847694979  0.007444907921593527  0.9995274618820797  1.0000
  Pd  Pd1       1.0  0.0022828590489498376  0.0038742447186573222  0.9992010356629893  1.0000
  Pd  Pd2       1.0  0.002279381066908728  0.008961279307197036  0.9996152848743995  1.0000
  Pd  Pd3       1.0  0.0027336253944182966  0.008874244756471304  0.9992010358414164  1.0000
  Pd  Pd4       1.0  0.00273734363465867  0.0039613102295804805  0.9996152986148675  1.0000
  Pd  Pd5       1.0  0.00728285873585318  0.001374244699750331  0.9994132192919423  1.0000
  Pd  Pd6       1.0  0.00728285873585318  0.006374244737564313  0.9989888520340364  1.0000
  Pd  Pd7       1.0  0.0077336248638934044  0.001374244699750331  0.9989888524180274  1.0000
  Pd  Pd8       1.0  0.0077336248638934044  0.006374244737564313  0.9994132189079513  1.0000
