data_image0
_chemical_formula_structural       HFe5Ni5Pt10Fe5Ni5Pt10
_chemical_formula_sum              "H1 Fe10 Ni10 Pt20"
_cell_length_a       5.428437232971191
_cell_length_b       8.2549390470042
_cell_length_c       109.26239776611328
_cell_angle_alpha    77.19627085744605
_cell_angle_beta     90.0
_cell_angle_gamma    70.80408270260743

_space_group_name_H-M_alt    "P 1"
_space_group_IT_number       1

loop_
  _space_group_symop_operation_xyz
  'x, y, z'

loop_
  _atom_site_type_symbol
  _atom_site_label
  _atom_site_symmetry_multiplicity
  _atom_site_fract_x
  _atom_site_fract_y
  _atom_site_fract_z
  _atom_site_occupancy
  H   H1        1.0  0.007321360784715881  0.006011955430597574  0.9999911573144317  1.0000
  Fe  Fe1       1.0  0.008076666652778803  0.0045000000078651925  0.9989205674965372  1.0000
  Fe  Fe2       1.0  0.006076666703902554  0.008499999905617691  0.9990403475093704  1.0000
  Fe  Fe3       1.0  7.666653365032842e-05  0.0005000000179424701  0.9993996880972822  1.0000
  Fe  Fe4       1.0  0.004076666366440161  0.0025000000589889427  0.9991601279325177  1.0000
  Fe  Fe5       1.0  0.00207666641756391  0.006499999956741442  0.9992799076725917  1.0000
  Ni  Ni1       1.0  0.009076666627216927  0.0025000000589889427  0.9991601279325177  1.0000
  Ni  Ni2       1.0  0.0070766666783406785  0.006499999956741442  0.9992799076725917  1.0000
  Ni  Ni3       1.0  0.0010766664431257865  0.008499999905617691  0.9990403475093704  1.0000
  Ni  Ni4       1.0  0.005076666386963397  0.0005000000179424701  0.9993996880972822  1.0000
  Ni  Ni5       1.0  0.0030766663920020355  0.0045000000078651925  0.9989205674965372  1.0000
  Pt  Pt1       1.0  0.005076666240714064  0.005500000228090578  0.9991002374440696  1.0000
  Pt  Pt2       1.0  0.0030766662918378135  0.009500000125843079  0.9992200177296621  1.0000
  Pt  Pt3       1.0  0.0070766663739307584  0.0014999999616571872  0.9989804577101685  1.0000
  Pt  Pt4       1.0  0.0010766665919600398  0.0035000000334270676  0.9993397981569245  1.0000
  Pt  Pt5       1.0  0.00907666618392538  0.007500000176966828  0.9988606772808484  1.0000
  Pt  Pt6       1.0  7.666649462828465e-05  0.005500000228090578  0.9991002374440696  1.0000
  Pt  Pt7       1.0  0.008076666209487255  0.009500000125843079  0.9992200177296621  1.0000
  Pt  Pt8       1.0  0.00207666662784498  0.0014999999616571872  0.9989804577101685  1.0000
  Pt  Pt9       1.0  0.006076666338045819  0.0035000000334270676  0.9993397981569245  1.0000
  Pt  Pt10      1.0  0.004076666266275938  0.007500000176966828  0.9988606772808484  1.0000
  Fe  Fe6       1.0  0.008076666652778803  0.0045000000078651925  0.9995194683813314  1.0000
  Fe  Fe7       1.0  0.006076666703902554  0.008499999905617691  0.9996392481214054  1.0000
  Fe  Fe8       1.0  0.009923333588642768  0.0008096293837200208  0.9999746610826085  1.0000
  Fe  Fe9       1.0  0.00408565036257257  0.002481042487517468  0.9997600944046164  1.0000
  Fe  Fe10      1.0  0.002070000455551083  0.006516733645071806  0.9998677328475415  1.0000
  Ni  Ni6       1.0  0.009074042353232736  0.0025080540159703674  0.9997549490528871  1.0000
  Ni  Ni7       1.0  0.0070531987715532  0.006548279456922939  0.999873843085282  1.0000
  Ni  Ni8       1.0  0.0010766664431257865  0.008499999905617691  0.9996392481214054  1.0000
  Ni  Ni9       1.0  0.004952626404057788  0.0007485020303640156  0.999978492873678  1.0000
  Ni  Ni10      1.0  0.0030766663920020355  0.0045000000078651925  0.9995194683813314  1.0000
  Pt  Pt11      1.0  0.005076666240714064  0.005500000228090578  0.999699138601623  1.0000
  Pt  Pt12      1.0  0.003105872157310851  0.009398506700420297  0.9998285238558295  1.0000
  Pt  Pt13      1.0  0.0070766663739307584  0.0014999999616571872  0.9995793583222035  1.0000
  Pt  Pt14      1.0  0.0010485219488119489  0.0035733400027805028  0.9999402000575545  1.0000
  Pt  Pt15      1.0  0.00907666618392538  0.007500000176966828  0.9994595778928833  1.0000
  Pt  Pt16      1.0  7.666649462828465e-05  0.005500000228090578  0.999699138601623  1.0000
  Pt  Pt17      1.0  0.008149604473883914  0.009399103471890966  0.9998285253198999  1.0000
  Pt  Pt18      1.0  0.00207666662784498  0.0014999999616571872  0.9995793583222035  1.0000
  Pt  Pt19      1.0  0.00603639540885544  0.003572592317931336  0.999940183663657  1.0000
  Pt  Pt20      1.0  0.004076666266275938  0.007500000176966828  0.9994595778928833  1.0000
