data_image0
_chemical_formula_structural       COCa12In6Na6
_chemical_formula_sum              "C1 O1 Ca12 In6 Na6"
_cell_length_a       8.067740239043973
_cell_length_b       9.880923086484941
_cell_length_c       102.77131652832031
_cell_angle_alpha    84.23181852225366
_cell_angle_beta     82.92944480913438
_cell_angle_gamma    65.90515625350287

_space_group_name_H-M_alt    "P 1"
_space_group_IT_number       1

loop_
  _space_group_symop_operation_xyz
  'x, y, z'

loop_
  _atom_site_type_symbol
  _atom_site_label
  _atom_site_symmetry_multiplicity
  _atom_site_fract_x
  _atom_site_fract_y
  _atom_site_fract_z
  _atom_site_occupancy
  C   C1        1.0  0.0033472337555000803  0.006709455627678467  0.9999593455775078  1.0000
  O   O1        1.0  0.0033472337555000803  0.006709455627678467  7.610933143659976e-05  1.0000
  Ca  Ca1       1.0  0.006351541519766979  0.00806678263540571  0.9992047681015404  1.0000
  Ca  Ca2       1.0  0.0007959858060344233  0.00028900442020375757  0.9988504614218691  1.0000
  Ca  Ca3       1.0  0.0018844923028259956  0.005800708248765486  0.9995570610004473  1.0000
  Ca  Ca4       1.0  0.008573763032980632  0.004177893514878487  0.9990276147592169  1.0000
  Ca  Ca5       1.0  0.009759569363925205  0.009710828263498214  0.9997289648027593  1.0000
  Ca  Ca6       1.0  0.004129319276154693  0.001955671160291503  0.9993819217640632  1.0000
  Ca  Ca7       1.0  0.003573763349377675  0.004177893514878487  0.9990276146198658  1.0000
  Ca  Ca8       1.0  0.00465836697335367  0.009710996201290165  0.9997289816772457  1.0000
  Ca  Ca9       1.0  0.00912931895975765  0.001955671160291503  0.9993819213234407  1.0000
  Ca  Ca10      1.0  0.0013515409055844824  0.00806678263540571  0.9992047679711813  1.0000
  Ca  Ca11      1.0  0.005795985780443486  0.00028900442020375757  0.9988504612684234  1.0000
  Ca  Ca12      1.0  0.006982732460098558  0.005798394347267531  0.9995572245600401  1.0000
  In  In1       1.0  0.009684874125779988  0.007233448838795709  0.9989390379322327  1.0000
  In  In2       1.0  0.0008369613422361519  0.002753702654382052  0.9996348342239307  1.0000
  In  In3       1.0  0.005240430165315951  0.005011226897848607  0.9992933449350498  1.0000
  In  In4       1.0  0.0024626524602164167  0.001122337777321384  0.9991161914488792  1.0000
  In  In5       1.0  0.00356059267908753  0.006816135421355688  0.9997892578088895  1.0000
  In  In6       1.0  0.008018207608763811  0.008900115604735947  0.9994704984277457  1.0000
  Na  Na1       1.0  0.004684874907466801  0.007233448838795709  0.9989390380783724  1.0000
  Na  Na2       1.0  0.005415381510548834  0.0032302126957449813  0.999747951130515  1.0000
  Na  Na3       1.0  0.00024043001642322422  0.005011226897848607  0.9992933448001947  1.0000
  Na  Na4       1.0  0.007462652143819373  0.001122337777321384  0.9991161912982435  1.0000
  Na  Na5       1.0  0.009069656784520576  0.005585008700600544  0.9998583932573919  1.0000
  Na  Na6       1.0  0.003018207925160856  0.008900115604735947  0.9994704982883946  1.0000
