data_image0
_chemical_formula_structural       COAg4Au4Zn8
_chemical_formula_sum              "C1 O1 Ag4 Au4 Zn8"
_cell_length_a       4.556375503540039
_cell_length_b       4.556375503540039
_cell_length_c       108.66212463378906
_cell_angle_alpha    90.0
_cell_angle_beta     90.0
_cell_angle_gamma    90.0

_space_group_name_H-M_alt    "P 1"
_space_group_IT_number       1

loop_
  _space_group_symop_operation_xyz
  'x, y, z'

loop_
  _atom_site_type_symbol
  _atom_site_label
  _atom_site_symmetry_multiplicity
  _atom_site_fract_x
  _atom_site_fract_y
  _atom_site_fract_z
  _atom_site_occupancy
  C   C1        1.0  0.007500001210047249  0.009999997252865706  0.00015939789308974046  1.0000
  O   O1        1.0  0.007500001210047249  0.009999997252865706  0.00026983218064980166  1.0000
  Ag  Ag1       1.0  0.007499998757248772  2.999999948357494e-09  0.9994032800901621  1.0000
  Ag  Ag2       1.0  0.0024999989044166802  0.005000003123230061  0.9991067788356828  1.0000
  Ag  Ag3       1.0  0.007500001210047249  0.009999997252865706  0.0  1.0000
  Ag  Ag4       1.0  0.0024999989044166802  0.005000003123230061  0.9996997813446415  1.0000
  Au  Au1       1.0  0.007499998757248772  2.999999948357494e-09  0.9991067788356828  1.0000
  Au  Au2       1.0  0.0024999989044166802  0.005000003123230061  0.9994032800901621  1.0000
  Au  Au3       1.0  0.007499998757248772  2.999999948357494e-09  0.9996997813446415  1.0000
  Au  Au4       1.0  0.002500004832013  0.004999998217633107  0.9999838013036207  1.0000
  Zn  Zn1       1.0  0.007499998757248772  0.005000003123230061  0.998958528482709  1.0000
  Zn  Zn2       1.0  0.0024999989044166802  2.999999948357494e-09  0.998958528482709  1.0000
  Zn  Zn3       1.0  0.0024999989044166802  2.999999948357494e-09  0.9992550294629224  1.0000
  Zn  Zn4       1.0  0.007499998757248772  0.005000003123230061  0.9992550294629224  1.0000
  Zn  Zn5       1.0  0.007499998757248772  0.005000003123230061  0.9995515307174019  1.0000
  Zn  Zn6       1.0  0.0024999989044166802  2.999999948357494e-09  0.9995515307174019  1.0000
  Zn  Zn7       1.0  0.0025000038100136345  3.500000069704349e-09  0.9998537745526401  1.0000
  Zn  Zn8       1.0  0.0074999954868508025  0.00500000107923133  0.9998537751011721  1.0000
