data_image0
_chemical_formula_structural       COAg4As4Se4Ag4As4Se4
_chemical_formula_sum              "C1 O1 Ag8 As8 Se8"
_cell_length_a       13.342817331291293
_cell_length_b       6.348865985870361
_cell_length_c       102.87940216064453
_cell_angle_alpha    90.0
_cell_angle_beta     72.05973406044124
_cell_angle_gamma    90.0

_space_group_name_H-M_alt    "P 1"
_space_group_IT_number       1

loop_
  _space_group_symop_operation_xyz
  'x, y, z'

loop_
  _atom_site_type_symbol
  _atom_site_label
  _atom_site_symmetry_multiplicity
  _atom_site_fract_x
  _atom_site_fract_y
  _atom_site_fract_z
  _atom_site_occupancy
  C   C1        1.0  0.007306174779455493  0.007802716285778469  0.9997203116731256  1.0000
  O   O1        1.0  0.007306174779455493  0.007802716285778469  0.9998369527544503  1.0000
  Ag  Ag1       1.0  0.006682494418772517  0.003386072552222432  0.9995110625214475  1.0000
  Ag  Ag2       1.0  0.0016426242034411132  0.0006838967479445586  0.9993773844791699  1.0000
  Ag  Ag3       1.0  0.00841923498417663  0.009316103260856912  0.9992965085084083  1.0000
  Ag  Ag4       1.0  0.00324435728998913  0.006400961290467705  0.9994578387793644  1.0000
  As  As1       1.0  0.00014899569758234583  0.0038727351751885928  0.9994297452864648  1.0000
  As  As2       1.0  0.004896279704597627  0.0016246312500859024  0.9996015302730481  1.0000
  As  As3       1.0  0.004912310637662565  0.008923631624404214  0.999443595943879  1.0000
  As  As4       1.0  0.009814398642835398  0.006636002790596473  0.999607924967042  1.0000
  Se  Se1       1.0  0.003399611650074241  0.003114246187738259  0.9992972927414951  1.0000
  Se  Se2       1.0  0.008543267674400399  0.0018545074607645012  0.9995066894271063  1.0000
  Se  Se3       1.0  0.001431967806172286  0.008178802518630577  0.9995962244894673  1.0000
  Se  Se4       1.0  0.0066395748573778125  0.006968047640334771  0.9993738994538279  1.0000
  Ag  Ag5       1.0  0.006580764640185499  0.004316103366474553  0.9991702089833524  1.0000
  Ag  Ag6       1.0  0.0015807647164869413  0.000879522037524662  0.9989704639065873  1.0000
  Ag  Ag7       1.0  0.00841923498417663  0.009316103260856912  0.998897018917164  1.0000
  Ag  Ag8       1.0  0.0034192352072116156  0.005879522298634943  0.9990967637154634  1.0000
  As  As5       1.0  0.00010640049985579731  0.0038109864076572844  0.9990293632258288  1.0000
  As  As6       1.0  0.005106400671167208  0.001384639069687515  0.9992291082927021  1.0000
  As  As7       1.0  0.0048935994696969925  0.008810986302039643  0.9990378643943901  1.0000
  As  As8       1.0  0.009893599540129092  0.006384639257452212  0.9992376091756113  1.0000
  Se  Se5       1.0  0.003399611650074241  0.003114246187738259  0.9988978028605687  1.0000
  Se  Se6       1.0  0.008399611427039254  0.0020813792896065405  0.9990975479431957  1.0000
  Se  Se7       1.0  0.0016003881268907732  0.008114246082120618  0.9991694247673438  1.0000
  Se  Se8       1.0  0.006600388197322874  0.007081379477371237  0.9989696799573207  1.0000
