data_image0
_chemical_formula_structural       COFe6Se6
_chemical_formula_sum              "C1 O1 Fe6 Se6"
_cell_length_a       5.246547698974609
_cell_length_b       6.923693888075603
_cell_length_c       101.41990661621094
_cell_angle_alpha    67.95667772014825
_cell_angle_beta     90.0
_cell_angle_gamma    67.73545452668012

_space_group_name_H-M_alt    "P 1"
_space_group_IT_number       1

loop_
  _space_group_symop_operation_xyz
  'x, y, z'

loop_
  _atom_site_type_symbol
  _atom_site_label
  _atom_site_symmetry_multiplicity
  _atom_site_fract_x
  _atom_site_fract_y
  _atom_site_fract_z
  _atom_site_occupancy
  C   C1        1.0  0.0038966157153730663  0.0056611990769024605  0.00012408219272702574  1.0000
  O   O1        1.0  0.0038966157153730663  0.0056611990769024605  0.00024240181176848346  1.0000
  Fe  Fe1       1.0  0.0070531802291418175  0.006657012514324812  0.9994609806005964  1.0000
  Fe  Fe2       1.0  0.00041402023762713615  0.0003278458327852299  0.9999614340112205  1.0000
  Fe  Fe3       1.0  0.003723701511922194  0.003349790321027212  0.999719685172661  1.0000
  Fe  Fe4       1.0  0.008691043367089122  0.003350201843882919  0.9997196229111476  1.0000
  Fe  Fe5       1.0  0.0020531803143473393  0.006657012514324812  0.9994609806005964  1.0000
  Fe  Fe6       1.0  0.005010738114003692  0.00032950573836883505  0.9999617388138698  1.0000
  Se  Se1       1.0  0.009585979220792214  0.0065914137357724785  0.999652065224327  1.0000
  Se  Se2       1.0  0.0029193134045012205  0.009924746958857545  0.9993938984978282  1.0000
  Se  Se3       1.0  0.006179912529915048  0.003393149374059871  0.99991306294458  1.0000
  Se  Se4       1.0  0.0028468979404300647  7.525274518151387e-05  0.9997772935769487  1.0000
  Se  Se5       1.0  0.006187048167057799  0.003389277433744388  0.9995280627196611  1.0000
  Se  Se6       1.0  0.009520380760263727  0.006722610656829455  0.9992698956993115  1.0000
