data_image0
_chemical_formula_structural       COSi4Rh4Si4Rh4Si4Rh4
_chemical_formula_sum              "C1 O1 Si12 Rh12"
_cell_length_a       6.454274654388428
_cell_length_b       6.417975553119114
_cell_length_c       104.30309295654297
_cell_angle_alpha    119.07113040875963
_cell_angle_beta     90.0
_cell_angle_gamma    90.0

_space_group_name_H-M_alt    "P 1"
_space_group_IT_number       1

loop_
  _space_group_symop_operation_xyz
  'x, y, z'

loop_
  _atom_site_type_symbol
  _atom_site_label
  _atom_site_symmetry_multiplicity
  _atom_site_fract_x
  _atom_site_fract_y
  _atom_site_fract_z
  _atom_site_occupancy
  C   C1        1.0  0.005047206666016529  0.0015234550591526144  0.00014730129832462582  1.0000
  O   O1        1.0  0.005047206666016529  0.0015234550591526144  0.00026235028080350567  1.0000
  Si  Si1       1.0  0.009474148878383255  0.003162285837842644  0.9995230849842537  1.0000
  Si  Si2       1.0  0.0005985063927162973  0.006857962149671263  0.9994840882631089  1.0000
  Si  Si3       1.0  0.005598506544226537  0.008162285758149061  0.9993735946796191  1.0000
  Si  Si4       1.0  0.004474148762946882  0.0018579620633365488  0.9993345978439846  1.0000
  Rh  Rh1       1.0  0.0030097979623356047  0.004981346309162815  0.9992784906869736  1.0000
  Rh  Rh2       1.0  0.007062857344837814  0.005038901346294499  0.9994297018316661  1.0000
  Rh  Rh3       1.0  0.002062857373696908  0.009981346229469232  0.9994279811011341  1.0000
  Rh  Rh4       1.0  0.008009798077771978  3.890164908860453e-05  0.999280211424176  1.0000
  Si  Si5       1.0  0.009474148878383255  0.003162285837842644  0.9998220657030485  1.0000
  Si  Si6       1.0  0.0005985063927162973  0.006857962149671263  0.9997830692676319  1.0000
  Si  Si7       1.0  0.005598506544226537  0.008162285758149061  0.999672575398414  1.0000
  Si  Si8       1.0  0.004474148762946882  0.0018579620633365488  0.9996335788485076  1.0000
  Rh  Rh5       1.0  0.0030097979623356047  0.004981346309162815  0.9995774714057686  1.0000
  Rh  Rh6       1.0  0.007062857344837814  0.005038901346294499  0.9997286828361891  1.0000
  Rh  Rh7       1.0  0.002062857373696908  0.009981346229469232  0.9997269618199289  1.0000
  Rh  Rh8       1.0  0.008009798077771978  3.890164908860453e-05  0.999579192428699  1.0000
  Si  Si9       1.0  0.00979617307181546  0.003094122588748473  9.250833492547229e-05  1.0000
  Si  Si10      1.0  0.00020382659991235145  0.007275541245870385  6.534482047890068e-05  1.0000
  Si  Si11      1.0  0.005614120468106499  0.008161973624952057  0.9999786705574911  1.0000
  Si  Si12      1.0  0.004480292575335624  0.001884287676022934  0.9999359404921653  1.0000
  Rh  Rh9       1.0  0.003040570125011128  0.004952323566803368  0.9998812326728609  1.0000
  Rh  Rh10      1.0  0.007182599495072067  0.005056215441143718  2.3785572466407472e-05  1.0000
  Rh  Rh11      1.0  0.0020484249410997447  0.009890196694811747  1.5998708154470883e-05  1.0000
  Rh  Rh12      1.0  0.007979454472633082  1.8653548882991374e-05  0.9998819148351016  1.0000
