data_image0
_chemical_formula_structural       HCo4Sb4V4Co4Sb4V4
_chemical_formula_sum              "H1 Co8 Sb8 V8"
_cell_length_a       8.25960922241211
_cell_length_b       5.840425491333008
_cell_length_c       103.03843688964844
_cell_angle_alpha    90.0
_cell_angle_beta     90.0
_cell_angle_gamma    90.0

_space_group_name_H-M_alt    "P 1"
_space_group_IT_number       1

loop_
  _space_group_symop_operation_xyz
  'x, y, z'

loop_
  _atom_site_type_symbol
  _atom_site_label
  _atom_site_symmetry_multiplicity
  _atom_site_fract_x
  _atom_site_fract_y
  _atom_site_fract_z
  _atom_site_occupancy
  H   H1        1.0  1.5000000127850615e-10  0.0037720663996355405  0.0  1.0000
  Co  Co1       1.0  1.5000000127850615e-10  0.007565200842813592  0.999963836369366  1.0000
  Co  Co2       1.0  1.5000000127850615e-10  0.007521067660835091  0.9995866403769174  1.0000
  Co  Co3       1.0  0.0025000000360820007  0.0025210677565119456  0.9993862392787758  1.0000
  Co  Co4       1.0  0.0024999998105694975  0.0024726689814002153  0.9997898823412379  1.0000
  Sb  Sb1       1.0  0.0025000002615945035  0.00022425925352101035  1.3310594741946475e-05  1.0000
  Sb  Sb2       1.0  0.0025000000360820007  2.1067749535508004e-05  0.9995866403769174  1.0000
  Sb  Sb3       1.0  1.5000000127850615e-10  0.0050210677884042305  0.9993862392787758  1.0000
  Sb  Sb4       1.0  0.00999999924227799  0.00491150471322049  0.9997806563231788  1.0000
  V   V1        1.0  1.5000000127850615e-10  0.00997893208402663  0.9997970200825903  1.0000
  V   V2        1.0  1.5000000127850615e-10  2.1067749535508004e-05  0.9993862392787758  1.0000
  V   V3        1.0  0.0025000000360820007  0.00519492060760059  0.9999671654642265  1.0000
  V   V4        1.0  0.0025000000360820007  0.0050210677884042305  0.9995866403769174  1.0000
  Co  Co5       1.0  0.0050000000721640014  0.007565200842813592  0.999963836369366  1.0000
  Co  Co6       1.0  0.0050000000721640014  0.007521067660835091  0.9995866403769174  1.0000
  Co  Co7       1.0  0.007500000108246002  0.0025210677565119456  0.9993862392787758  1.0000
  Co  Co8       1.0  0.007499999657220996  0.0024726689814002153  0.9997898823412379  1.0000
  Sb  Sb5       1.0  0.007500000108246002  0.00022425925352101035  1.3310594741946475e-05  1.0000
  Sb  Sb6       1.0  0.007500000108246002  2.1067749535508004e-05  0.9995866403769174  1.0000
  Sb  Sb7       1.0  0.0050000000721640014  0.0050210677884042305  0.9993862392787758  1.0000
  Sb  Sb8       1.0  0.004999999621138995  0.00491150471322049  0.9997806563231788  1.0000
  V   V5        1.0  0.0050000000721640014  0.00997893208402663  0.9997970200825903  1.0000
  V   V6        1.0  0.0050000000721640014  2.1067749535508004e-05  0.9993862392787758  1.0000
  V   V7        1.0  0.007500000108246002  0.00519492060760059  0.9999671654642265  1.0000
  V   V8        1.0  0.007500000108246002  0.0050210677884042305  0.9995866403769174  1.0000
