data_image0
_chemical_formula_structural       HPd4Pb8Pd4Pb8
_chemical_formula_sum              "H1 Pd8 Pb16"
_cell_length_a       7.099508762359619
_cell_length_b       7.099508762359619
_cell_length_c       105.81438446044922
_cell_angle_alpha    90.0
_cell_angle_beta     90.0
_cell_angle_gamma    90.0

_space_group_name_H-M_alt    "P 1"
_space_group_IT_number       1

loop_
  _space_group_symop_operation_xyz
  'x, y, z'

loop_
  _atom_site_type_symbol
  _atom_site_label
  _atom_site_symmetry_multiplicity
  _atom_site_fract_x
  _atom_site_fract_y
  _atom_site_fract_z
  _atom_site_occupancy
  H   H1        1.0  0.00831639401839604  0.009566394102352051  0.00014175752919955674  1.0000
  Pd  Pd1       1.0  0.0008163937770225021  0.0004336062741381932  0.9992948658811477  1.0000
  Pd  Pd2       1.0  0.0008163937770225021  0.0004336062741381932  0.9990128122899363  1.0000
  Pd  Pd3       1.0  0.0058163938504840135  0.0054336063803950225  0.9990128122899363  1.0000
  Pd  Pd4       1.0  0.0058163938504840135  0.0054336063803950225  0.9992948658811477  1.0000
  Pb  Pb1       1.0  0.0024491813310675062  0.003800818826350018  0.999435892817577  1.0000
  Pb  Pb2       1.0  0.004183606296439009  0.008800819162174069  0.999435892817577  1.0000
  Pb  Pb3       1.0  0.004183606296439009  0.0020663938609785147  0.9991538392263656  1.0000
  Pb  Pb4       1.0  0.0024491813310675062  0.007066393934440026  0.9991538392263656  1.0000
  Pb  Pb5       1.0  0.007449181404529018  0.008800819162174069  0.9991538392263656  1.0000
  Pb  Pb6       1.0  0.00918360610753798  0.003800818826350018  0.9991538392263656  1.0000
  Pb  Pb7       1.0  0.00918360610753798  0.007066393934440026  0.999435892817577  1.0000
  Pb  Pb8       1.0  0.007449181404529018  0.0020663938609785147  0.999435892817577  1.0000
  Pd  Pd5       1.0  0.0008163937770225021  0.0004336062741381932  0.9998589730635706  1.0000
  Pd  Pd6       1.0  0.0008163937770225021  0.0004336062741381932  0.999576919190712  1.0000
  Pd  Pd7       1.0  0.0058163938504840135  0.0054336063803950225  0.999576919190712  1.0000
  Pd  Pd8       1.0  0.0058163938504840135  0.0054336063803950225  0.9998589730635706  1.0000
  Pb  Pb9       1.0  0.0024491813310675062  0.003800818826350018  0.0  1.0000
  Pb  Pb10      1.0  0.004183606296439009  0.008800819162174069  0.0  1.0000
  Pb  Pb11      1.0  0.004183606296439009  0.0020663938609785147  0.9997179461271414  1.0000
  Pb  Pb12      1.0  0.0024491813310675062  0.007066393934440026  0.9997179461271414  1.0000
  Pb  Pb13      1.0  0.007449181404529018  0.008800819162174069  0.9997179461271414  1.0000
  Pb  Pb14      1.0  0.00918360610753798  0.003800818826350018  0.9997179461271414  1.0000
  Pb  Pb15      1.0  0.00918360610753798  0.007066393934440026  0.0  1.0000
  Pb  Pb16      1.0  0.007449181404529018  0.0020663938609785147  0.0  1.0000
