data_image0
_chemical_formula_structural       COFe5Ni15Fe5Ni15
_chemical_formula_sum              "C1 O1 Fe10 Ni30"
_cell_length_a       4.989798069000244
_cell_length_b       7.889564017794044
_cell_length_c       106.6673812866211
_cell_angle_alpha    75.03678225344648
_cell_angle_beta     90.0
_cell_angle_gamma    71.5650524760929

_space_group_name_H-M_alt    "P 1"
_space_group_IT_number       1

loop_
  _space_group_symop_operation_xyz
  'x, y, z'

loop_
  _atom_site_type_symbol
  _atom_site_label
  _atom_site_symmetry_multiplicity
  _atom_site_fract_x
  _atom_site_fract_y
  _atom_site_fract_z
  _atom_site_occupancy
  C   C1        1.0  0.005843220937807926  0.0013981388060595296  0.0001218690061132799  1.0000
  O   O1        1.0  0.005843220937807926  0.0013981388060595296  0.000234368480403835  1.0000
  Fe  Fe1       1.0  0.008043103305535176  0.004499999826205105  0.998956189795506  1.0000
  Fe  Fe2       1.0  0.006043103468985136  0.008499999499305185  0.9990707747332213  1.0000
  Fe  Fe3       1.0  4.3102508986575525e-05  0.0004999999914654293  0.9994145289706247  1.0000
  Fe  Fe4       1.0  0.0040431025518869596  0.002499999989655066  0.9991853595212193  1.0000
  Fe  Fe5       1.0  0.002043102586025242  0.006499999921378501  0.9992999441746006  1.0000
  Ni  Ni1       1.0  4.310277645933743e-05  0.005499999615168448  0.9991280671296898  1.0000
  Ni  Ni2       1.0  0.00804310372381974  0.009499999288268527  0.9992426517880101  1.0000
  Ni  Ni3       1.0  0.002043102613009377  0.0014999999420683685  0.9990134821919747  1.0000
  Ni  Ni4       1.0  0.00604310318001225  0.003499999778618408  0.9993572365760083  1.0000
  Ni  Ni5       1.0  0.0040431032141505325  0.007499999710341843  0.9988988973990375  1.0000
  Ni  Ni6       1.0  0.009043103223810196  0.002499999989655066  0.9991853595212193  1.0000
  Ni  Ni7       1.0  0.007043103257948479  0.006499999921378501  0.9992999441746006  1.0000
  Ni  Ni8       1.0  0.0010431027970618995  0.008499999499305185  0.9990707747332213  1.0000
  Ni  Ni9       1.0  0.005043102550981777  0.0004999999914654293  0.9994145289706247  1.0000
  Ni  Ni10      1.0  0.0030431026336119396  0.004499999826205105  0.998956189795506  1.0000
  Ni  Ni11      1.0  0.00504310326173723  0.005499999615168448  0.9991280671296898  1.0000
  Ni  Ni12      1.0  0.0030431034251871907  0.009499999288268527  0.9992426517880101  1.0000
  Ni  Ni13      1.0  0.007043103098287269  0.0014999999420683685  0.9990134821919747  1.0000
  Ni  Ni14      1.0  0.001043102694734357  0.003499999778618408  0.9993572365760083  1.0000
  Ni  Ni15      1.0  0.009043103512783082  0.007499999710341843  0.9988988973990375  1.0000
  Fe  Fe6       1.0  0.008043103305535176  0.004499999826205105  0.9995291139052529  1.0000
  Fe  Fe7       1.0  0.006043103468985136  0.008499999499305185  0.999643698842968  1.0000
  Fe  Fe8       1.0  0.009956897596272204  0.0006694189465839571  0.9999720971774166  1.0000
  Fe  Fe9       1.0  0.0040611349313121195  0.0024611534686051276  0.9997617747469115  1.0000
  Fe  Fe10      1.0  0.0020716524266224667  0.006442417948616431  0.9998670794728541  1.0000
  Ni  Ni16      1.0  4.310277645933743e-05  0.005499999615168448  0.9997009912394367  1.0000
  Ni  Ni17      1.0  0.008110684189312368  0.00942041984741669  0.9998200938501188  1.0000
  Ni  Ni18      1.0  0.002043102613009377  0.0014999999420683685  0.9995864063017216  1.0000
  Ni  Ni19      1.0  0.006036161389401635  0.003518449451523175  0.9999281339301108  1.0000
  Ni  Ni20      1.0  0.0040431032141505325  0.007499999710341843  0.9994718215087843  1.0000
  Ni  Ni21      1.0  0.00905003895555356  0.0024871782195802165  0.9997554098884072  1.0000
  Ni  Ni22      1.0  0.007042206714266929  0.006500271475901336  0.9998718961125932  1.0000
  Ni  Ni23      1.0  0.0010431027970618995  0.008499999499305185  0.999643698842968  1.0000
  Ni  Ni24      1.0  0.004995748240911487  0.0005868933977827149  0.9999781066445799  1.0000
  Ni  Ni25      1.0  0.0030431026336119396  0.004499999826205105  0.9995291139052529  1.0000
  Ni  Ni26      1.0  0.00504310326173723  0.005499999615168448  0.9997009912394367  1.0000
  Ni  Ni27      1.0  0.0030525595637951007  0.009419746392200059  0.9998200614494333  1.0000
  Ni  Ni28      1.0  0.007043103098287269  0.0014999999420683685  0.9995864063017216  1.0000
  Ni  Ni29      1.0  0.0010249238895296963  0.0035189620430129457  0.9999281621386186  1.0000
  Ni  Ni30      1.0  0.009043103512783082  0.007499999710341843  0.9994718215087843  1.0000
