data_image0
_chemical_formula_structural       COPd12Zn4
_chemical_formula_sum              "C1 O1 Pd12 Zn4"
_cell_length_a       4.806227207183838
_cell_length_b       4.806227145786636
_cell_length_c       103.80634307861328
_cell_angle_alpha    90.0
_cell_angle_beta     90.0
_cell_angle_gamma    108.23070950182891

_space_group_name_H-M_alt    "P 1"
_space_group_IT_number       1

loop_
  _space_group_symop_operation_xyz
  'x, y, z'

loop_
  _atom_site_type_symbol
  _atom_site_label
  _atom_site_symmetry_multiplicity
  _atom_site_fract_x
  _atom_site_fract_y
  _atom_site_fract_z
  _atom_site_occupancy
  C   C1        1.0  0.006666666750861651  0.008333333387737271  0.0001224978603354891  1.0000
  O   O1        1.0  0.006666666750861651  0.008333333387737271  0.00023809796686854908  1.0000
  Pd  Pd1       1.0  0.005000000528047572  3.5000000905393743e-10  0.9990552675503938  1.0000
  Pd  Pd2       1.0  5.163017736841932e-10  0.0050000001142482715  0.9993266570985047  1.0000
  Pd  Pd3       1.0  5.163017736841932e-10  0.0050000001142482715  0.9990552675503938  1.0000
  Pd  Pd4       1.0  0.005000000528047572  3.5000000905393743e-10  0.9993266570985047  1.0000
  Pd  Pd5       1.0  5.000000056376823e-10  3.5000000905393743e-10  0.9991909623244493  1.0000
  Pd  Pd6       1.0  0.005000000547305637  0.0050000001142482715  0.9994623518725602  1.0000
  Pd  Pd7       1.0  0.005000000528047572  3.5000000905393743e-10  0.9995980463595202  1.0000
  Pd  Pd8       1.0  0.009999999032715796  0.0049999988901596485  0.9998751301575654  1.0000
  Pd  Pd9       1.0  5.163017736841932e-10  0.0050000001142482715  0.9995980463595202  1.0000
  Pd  Pd10      1.0  0.004999999258115021  0.009999999412437462  0.9998751301575654  1.0000
  Pd  Pd11      1.0  0.009999999289118884  0.009999999412437462  0.999733867742642  1.0000
  Pd  Pd12      1.0  0.004999999644559442  0.004999999706218731  0.0  1.0000
  Zn  Zn1       1.0  0.005000000547305637  0.0050000001142482715  0.9991909623244493  1.0000
  Zn  Zn2       1.0  5.000000056376823e-10  3.5000000905393743e-10  0.9994623518725602  1.0000
  Zn  Zn3       1.0  0.0049999978436665185  0.004999997666071026  0.9997359043973275  1.0000
  Zn  Zn4       1.0  1.59999995537918e-09  1.7499999966287755e-09  0.999991801704088  1.0000
