data_image0
_chemical_formula_structural       CORh4Sn2V2Rh4Sn2V2
_chemical_formula_sum              "C1 O1 Rh8 Sn4 V4"
_cell_length_a       8.205523490905762
_cell_length_b       4.698842199780943
_cell_length_c       41.28449630737305
_cell_angle_alpha    91.7638707936055
_cell_angle_beta     90.0
_cell_angle_gamma    115.88533695828828

_space_group_name_H-M_alt    "P 1"
_space_group_IT_number       1

loop_
  _space_group_symop_operation_xyz
  'x, y, z'

loop_
  _atom_site_type_symbol
  _atom_site_label
  _atom_site_symmetry_multiplicity
  _atom_site_fract_x
  _atom_site_fract_y
  _atom_site_fract_z
  _atom_site_occupancy
  C   C1        1.0  0.00015382761420042364  0.005496527721738298  0.00017328438609362544  1.0000
  O   O1        1.0  0.00015382761420042364  0.005496527721738298  0.00046395026771247385  1.0000
  Rh  Rh1       1.0  0.001734084374401038  0.006816463499177964  0.9996596348849547  1.0000
  Rh  Rh2       1.0  0.004846172313535123  0.009265730186299118  3.246078773439753e-05  1.0000
  Rh  Rh3       1.0  0.0005152972118126399  0.0019520155505652673  0.9987787343387459  1.0000
  Rh  Rh4       1.0  0.003640297011511394  0.004452015356582453  0.9992134541156205  1.0000
  Sn  Sn1       1.0  0.0002083420475333172  0.0007342695888571644  0.9994197095148986  1.0000
  Sn  Sn2       1.0  0.003952797042372297  0.005702015480026062  0.998561374330612  1.0000
  V   V1        1.0  0.003503440895049748  0.003896072074448544  0.9998473619533046  1.0000
  V   V2        1.0  0.0020777972558996428  0.00820201572691328  0.9989960944699695  1.0000
  Rh  Rh5       1.0  0.006734084184289424  0.006816463499177964  0.9996596348849547  1.0000
  Rh  Rh6       1.0  0.009846172222735546  0.009265730186299118  3.246078773439753e-05  1.0000
  Rh  Rh7       1.0  0.00551529724160625  0.0019520155505652673  0.9987787343387459  1.0000
  Rh  Rh8       1.0  0.008640296920711816  0.004452015356582453  0.9992134541156205  1.0000
  Sn  Sn3       1.0  0.005208341970921174  0.0007342695888571644  0.9994197095148986  1.0000
  Sn  Sn4       1.0  0.008952796951572719  0.005702015480026062  0.998561374330612  1.0000
  V   V3        1.0  0.00850344080425017  0.003896072074448544  0.9998473619533046  1.0000
  V   V4        1.0  0.007077797285693254  0.00820201572691328  0.9989960944699695  1.0000
