data_image0
_chemical_formula_structural       HIn12Ir4
_chemical_formula_sum              "H1 In12 Ir4"
_cell_length_a       5.510790824890137
_cell_length_b       7.624949932098389
_cell_length_c       103.75440216064453
_cell_angle_alpha    90.0
_cell_angle_beta     90.0
_cell_angle_gamma    90.0

_space_group_name_H-M_alt    "P 1"
_space_group_IT_number       1

loop_
  _space_group_symop_operation_xyz
  'x, y, z'

loop_
  _atom_site_type_symbol
  _atom_site_label
  _atom_site_symmetry_multiplicity
  _atom_site_fract_x
  _atom_site_fract_y
  _atom_site_fract_z
  _atom_site_occupancy
  H   H1        1.0  0.00047409908211690243  0.0030709384276302464  0.0  1.0000
  In  In1       1.0  0.006567161393180528  0.0033195659347079634  0.9997127942073035  1.0000
  In  In2       1.0  0.0014222972886006587  0.004771905909999194  0.9998986287213965  1.0000
  In  In3       1.0  0.008915984226526235  0.008405977085150668  2.5605068960549947e-05  1.0000
  In  In4       1.0  0.009248058703296348  0.0052282660065591955  0.9994639635600281  1.0000
  In  In5       1.0  0.001567161555420341  0.0017315181169370605  0.9993061319870064  1.0000
  In  In6       1.0  0.003978282448871096  0.009771734638347752  0.9998986241255706  1.0000
  In  In7       1.0  0.0038334881479706695  0.006731518209764576  0.9996217951330499  1.0000
  In  In8       1.0  0.006152590675615036  0.00022826589846399736  0.9994639635600281  1.0000
  In  In9       1.0  0.008833487985730857  0.00831956639395988  0.9997127942073035  1.0000
  In  In10      1.0  0.006484292000815785  0.003405932410687501  2.5607941351674285e-05  1.0000
  In  In11      1.0  0.001567161555420341  0.0017315181169370605  0.9996217951330499  1.0000
  In  In12      1.0  0.0038334881479706695  0.006731518209764576  0.9993061319870064  1.0000
  Ir  Ir1       1.0  0.004604197562535011  0.0037581505392141256  0.9994639635600281  1.0000
  Ir  Ir2       1.0  0.0058751572157865655  0.006369379506961524  0.9998638745122266  1.0000
  Ir  Ir3       1.0  0.009525900466653617  0.0013699708231198313  0.9998638773846178  1.0000
  Ir  Ir4       1.0  0.0007964521408559997  0.008758150021334303  0.9994639635600281  1.0000
