data_image0
_chemical_formula_structural       COV6Pt12V6Pt12
_chemical_formula_sum              "C1 O1 V12 Pt24"
_cell_length_a       8.454731941223145
_cell_length_b       6.706176114671535
_cell_length_c       103.04280853271484
_cell_angle_alpha    90.73926811453441
_cell_angle_beta     90.0
_cell_angle_gamma    90.0

_space_group_name_H-M_alt    "P 1"
_space_group_IT_number       1

loop_
  _space_group_symop_operation_xyz
  'x, y, z'

loop_
  _atom_site_type_symbol
  _atom_site_label
  _atom_site_symmetry_multiplicity
  _atom_site_fract_x
  _atom_site_fract_y
  _atom_site_fract_z
  _atom_site_occupancy
  C   C1        1.0  0.005800945130517654  0.008361499969778207  0.00013428320840013538  1.0000
  O   O1        1.0  0.005800945130517654  0.008361499969778207  0.00025073989751381775  1.0000
  V   V1        1.0  1.9999999936964128e-10  0.0034204774643205073  0.9994053741703359  1.0000
  V   V2        1.0  1.9999999936964128e-10  8.714425540670088e-05  0.9995580746116991  1.0000
  V   V3        1.0  1.9999999936964128e-10  0.0067538111680189436  0.999252674018611  1.0000
  V   V4        1.0  0.005000000387742094  0.0034204774643205073  0.99917632365089  1.0000
  V   V5        1.0  0.005000000387742094  8.714425540670088e-05  0.9993290240922532  1.0000
  V   V6        1.0  0.005000000387742094  0.0067538111680189436  0.9994817242488341  1.0000
  Pt  Pt1       1.0  0.008396852009361307  0.0034204774643205073  0.99917632365089  1.0000
  Pt  Pt2       1.0  0.008396852009361307  8.714425540670088e-05  0.9993290240922532  1.0000
  Pt  Pt3       1.0  0.008396852009361307  0.0067538111680189436  0.9994817242488341  1.0000
  Pt  Pt4       1.0  0.006603147832016928  0.0034204774643205073  0.9994053741703359  1.0000
  Pt  Pt5       1.0  0.006603147832016928  8.714425540670088e-05  0.9995580746116991  1.0000
  Pt  Pt6       1.0  0.006603147832016928  0.0067538111680189436  0.999252674018611  1.0000
  Pt  Pt7       1.0  0.003396852502851244  0.0034204774643205073  0.9994053741703359  1.0000
  Pt  Pt8       1.0  0.003396852502851244  8.714425540670088e-05  0.9995580746116991  1.0000
  Pt  Pt9       1.0  0.003396852502851244  0.0067538111680189436  0.999252674018611  1.0000
  Pt  Pt10      1.0  0.0016031479950448535  0.0034204774643205073  0.99917632365089  1.0000
  Pt  Pt11      1.0  0.0016031479950448535  8.714425540670088e-05  0.9993290240922532  1.0000
  Pt  Pt12      1.0  0.0016031479950448535  0.0067538111680189436  0.9994817242488341  1.0000
  V   V7        1.0  0.009999999894252156  0.0035804851886550946  0.9998556678008973  1.0000
  V   V8        1.0  3.9999999873928257e-10  0.00973684596485739  0.9999926037069804  1.0000
  V   V9        1.0  1.9999999936964128e-10  0.0067538111680189436  0.9997107750575027  1.0000
  V   V10       1.0  0.005000000387742094  0.0034204774643205073  0.999634424400559  1.0000
  V   V11       1.0  0.004999999947126078  0.00015626225677012594  0.999786537335229  1.0000
  V   V12       1.0  0.005000000387742094  0.006743490759242535  0.9999240346049642  1.0000
  Pt  Pt13      1.0  0.008396852009361307  0.0034204774643205073  0.999634424400559  1.0000
  Pt  Pt14      1.0  0.008401867982079604  0.00015026055393323296  0.9997882520139468  1.0000
  Pt  Pt15      1.0  0.00840743472481704  0.006668163497230262  0.9999380559211072  1.0000
  Pt  Pt16      1.0  0.006614023557122842  0.003438341932470294  0.9998713758677683  1.0000
  Pt  Pt17      1.0  0.0066018894326772  0.009912855683830274  8.323254261362573e-06  1.0000
  Pt  Pt18      1.0  0.006603147832016928  0.0067538111680189436  0.9997107750575027  1.0000
  Pt  Pt19      1.0  0.0033859772183613447  0.0034383422102441208  0.9998713758680016  1.0000
  Pt  Pt20      1.0  0.00339810913972691  0.009912855683830274  8.323832706822515e-06  1.0000
  Pt  Pt21      1.0  0.003396852502851244  0.0067538111680189436  0.9997107750575027  1.0000
  Pt  Pt22      1.0  0.0016031479950448535  0.0034204774643205073  0.999634424400559  1.0000
  Pt  Pt23      1.0  0.0015981333441746023  0.0001502616476676776  0.9997882514364198  1.0000
  Pt  Pt24      1.0  0.0015925649491271092  0.006668164052777916  0.9999380553431282  1.0000
