data_image0
_chemical_formula_structural       COIn6Pt30Si6
_chemical_formula_sum              "C1 O1 In6 Pt30 Si6"
_cell_length_a       8.98702991194305
_cell_length_b       8.223909412057832
_cell_length_c       101.43840026855469
_cell_angle_alpha    90.66911815505482
_cell_angle_beta     93.27751888991448
_cell_angle_gamma    64.0799108598882

_space_group_name_H-M_alt    "P 1"
_space_group_IT_number       1

loop_
  _space_group_symop_operation_xyz
  'x, y, z'

loop_
  _atom_site_type_symbol
  _atom_site_label
  _atom_site_symmetry_multiplicity
  _atom_site_fract_x
  _atom_site_fract_y
  _atom_site_fract_z
  _atom_site_occupancy
  C   C1        1.0  0.0029020461143064065  0.0009375002750329768  5.67040667340882e-05  1.0000
  O   O1        1.0  0.0029020461143064065  0.0009375002750329768  0.0001750027020331999  1.0000
  In  In1       1.0  0.005833333481063059  0.0006944443910891546  0.9997995662042225  1.0000
  In  In2       1.0  0.0019444444936876863  0.00013888888100298247  0.999627384864531  1.0000
  In  In3       1.0  0.009722222468438431  0.0012499997879218802  0.9999717475438067  1.0000
  In  In4       1.0  0.004166666574335589  0.009027777358740231  0.9992830228239623  1.0000
  In  In5       1.0  0.0002777777889344497  0.008472222092069867  0.9991108414855243  1.0000
  In  In6       1.0  0.00805555510005557  0.009583333655309714  0.9994552038682627  1.0000
  Pt  Pt1       1.0  0.003567071322758958  0.004055366285615051  0.9999206027493452  1.0000
  Pt  Pt2       1.0  0.009678182390782233  0.0034998113425510104  0.9997484219275543  1.0000
  Pt  Pt3       1.0  0.00578929340340686  0.002944255266197605  0.9995762405873267  1.0000
  Pt  Pt4       1.0  0.001988484340516189  0.007889077386650371  0.9998507108953943  1.0000
  Pt  Pt5       1.0  0.008099595177711768  0.007333521647666796  0.9996785294840862  1.0000
  Pt  Pt6       1.0  0.005877373097063866  0.008444633573111817  2.2891646962527094e-05  1.0000
  Pt  Pt7       1.0  0.0066226266259429  0.0037775889241910684  0.9998345120435876  1.0000
  Pt  Pt8       1.0  0.002733737869395223  0.003222033190743412  0.9996623312924483  1.0000
  Pt  Pt9       1.0  0.0005115156733334728  0.0043331442652148775  6.693453934359363e-06  1.0000
  Pt  Pt10      1.0  0.005044039874527826  0.007611299462104566  0.9997646201902728  1.0000
  Pt  Pt11      1.0  0.0011551510025663016  0.0070557442367247146  0.9995924388514354  1.0000
  Pt  Pt12      1.0  0.008932928400247809  0.008166855758674046  0.999936800940776  1.0000
  Pt  Pt13      1.0  0.004999999796871628  0.009861110563719909  0.9995412945735915  1.0000
  Pt  Pt14      1.0  0.0027777777162237257  0.0009722221992361057  0.9998856569080646  1.0000
  Pt  Pt15      1.0  0.00888888832259161  0.00041666702337435374  0.9997134754961206  1.0000
  Pt  Pt16      1.0  0.0019004045314453357  0.0023887000408177542  0.9994040595422866  1.0000
  Pt  Pt17      1.0  0.008011515945710153  0.0018331440265640841  0.9992318781336409  1.0000
  Pt  Pt18      1.0  0.00412262649667939  0.0012775888499474333  0.999059697085724  1.0000
  Pt  Pt19      1.0  0.00032181769346987637  0.006222411073035552  0.9993341673952041  1.0000
  Pt  Pt20      1.0  0.0064329287326396895  0.005666855237707442  0.9991619859848279  1.0000
  Pt  Pt21      1.0  0.004210706190336396  0.0067779664773409635  0.9995063484385137  1.0000
  Pt  Pt22      1.0  0.004955960180870821  0.0021109220612179286  0.9993179688376975  1.0000
  Pt  Pt23      1.0  0.001067071308909296  0.0015553666093311841  0.999145787792443  1.0000
  Pt  Pt24      1.0  0.008844849168246193  0.0026664776845575474  0.999490149883699  1.0000
  Pt  Pt25      1.0  0.003377373198628052  0.005944633162253249  0.9992480766899494  1.0000
  Pt  Pt26      1.0  0.009488484497479022  0.005389077203053598  0.9990758955745684  1.0000
  Pt  Pt27      1.0  0.007266261955175729  0.006500188442687119  0.999420257734457  1.0000
  Pt  Pt28      1.0  0.003333333351799549  0.008194444153760557  0.9990247510743331  1.0000
  Pt  Pt29      1.0  0.0011111110403239513  0.009305555283286039  0.9993691132352867  1.0000
  Pt  Pt30      1.0  0.007222221877519531  0.008749999544302462  0.9991969321177757  1.0000
  Si  Si1       1.0  0.004722222209911412  0.0062499999293634334  0.9999717474919512  1.0000
  Si  Si2       1.0  0.0008333333956568111  0.005694444223442786  0.9997995661529512  1.0000
  Si  Si3       1.0  0.006944444290559315  0.005138888909945988  0.9996273847423381  1.0000
  Si  Si4       1.0  0.0030555555340116376  0.004583333176498331  0.9994552039911989  1.0000
  Si  Si5       1.0  0.009166666371207216  0.00402777789052854  0.9992830228741169  1.0000
  Si  Si6       1.0  0.005277777845487235  0.003472222046972847  0.999110841536448  1.0000
