data_image0
_chemical_formula_structural       HAl6Rh12Ti6
_chemical_formula_sum              "H1 Al6 Rh12 Ti6"
_cell_length_a       6.145934581756592
_cell_length_b       7.52720202995331
_cell_length_c       103.09687042236328
_cell_angle_alpha    94.34775286988413
_cell_angle_beta     90.0
_cell_angle_gamma    114.09484196987547

_space_group_name_H-M_alt    "P 1"
_space_group_IT_number       1

loop_
  _space_group_symop_operation_xyz
  'x, y, z'

loop_
  _atom_site_type_symbol
  _atom_site_label
  _atom_site_symmetry_multiplicity
  _atom_site_fract_x
  _atom_site_fract_y
  _atom_site_fract_z
  _atom_site_occupancy
  H   H1        1.0  0.008239497945514021  0.0035424027379270025  9.586222330350498e-05  1.0000
  Al  Al1       1.0  0.007010846183549519  0.0035848125830140673  0.999751593046001  1.0000
  Al  Al2       1.0  0.002860605346101854  0.00528253217867907  0.9994855819989578  1.0000
  Al  Al3       1.0  0.0012084984750045811  0.001983150765566047  1.671006921606837e-05  1.0000
  Al  Al4       1.0  0.009943938843042746  0.009449198881614159  0.9996193428858293  1.0000
  Al  Al5       1.0  0.005777272140107656  0.0011158654757439808  0.9993518208230152  1.0000
  Al  Al6       1.0  0.004029338047587121  0.007624826690617985  0.9998942957501851  1.0000
  Rh  Rh1       1.0  0.005048788178299154  0.004671609643537929  0.9999405187058332  1.0000
  Rh  Rh2       1.0  0.0009856054575414974  0.006532532243962231  0.999686223971063  1.0000
  Rh  Rh3       1.0  0.006818938737664492  0.008199198816330999  0.9994187012027951  1.0000
  Rh  Rh4       1.0  0.0018189385921911448  0.008199198816330999  0.9994187012027951  1.0000
  Rh  Rh5       1.0  5.6061332809954885e-05  0.004671568297536343  0.9999405190551275  1.0000
  Rh  Rh6       1.0  0.005985605451480107  0.006532532243962231  0.999686223971063  1.0000
  Rh  Rh7       1.0  0.009735605531670294  0.00403253211339591  0.9992849400268525  1.0000
  Rh  Rh8       1.0  0.007962053980719154  0.0005508010966247876  0.9998232620605382  1.0000
  Rh  Rh9       1.0  0.0039022721000125634  0.0023658655410271415  0.9995524625060493  1.0000
  Rh  Rh10      1.0  0.00890227224548591  0.0023658655410271415  0.9995524625060493  1.0000
  Rh  Rh11      1.0  0.004735605386196947  0.00403253211339591  0.9992849400268525  1.0000
  Rh  Rh12      1.0  0.003024744017339909  0.0005524963846947409  0.9998230118580486  1.0000
  Ti  Ti1       1.0  0.00200655210959368  0.0035764340334032522  0.9997532423620579  1.0000
  Ti  Ti2       1.0  0.0078606054915752  0.00528253217867907  0.9994855819989578  1.0000
  Ti  Ti3       1.0  0.006212877167221303  0.001993123584356428  1.1031832683345635e-05  1.0000
  Ti  Ti4       1.0  0.004943938640743873  0.009449198881614159  0.9996193428858293  1.0000
  Ti  Ti5       1.0  0.0007772720325179934  0.0011158654757439808  0.9993518208230152  1.0000
  Ti  Ti6       1.0  0.009065170303905997  0.007695172560105423  0.9998990980697352  1.0000
