data_image0
_chemical_formula_structural       HFe3Ga3Ni6Fe3Ga3Ni6Fe3Ga3Ni6Fe3Ga3Ni6
_chemical_formula_sum              "H1 Fe12 Ga12 Ni24"
_cell_length_a       8.121759414672852
_cell_length_b       8.12175936694196
_cell_length_c       109.788330078125
_cell_angle_alpha    90.0
_cell_angle_beta     90.0
_cell_angle_gamma    120.0000001944068

_space_group_name_H-M_alt    "P 1"
_space_group_IT_number       1

loop_
  _space_group_symop_operation_xyz
  'x, y, z'

loop_
  _atom_site_type_symbol
  _atom_site_label
  _atom_site_symmetry_multiplicity
  _atom_site_fract_x
  _atom_site_fract_y
  _atom_site_fract_z
  _atom_site_occupancy
  H   H1        1.0  0.0008333417484854248  0.004999991462230807  0.00011222065664797984  1.0000
  Fe  Fe1       1.0  0.0008333313059850006  8.399999918323259e-09  0.9995628891847813  1.0000
  Fe  Fe2       1.0  0.004166664516198936  0.0016666750314206856  0.9992608813905404  1.0000
  Fe  Fe3       1.0  0.0025000032175601402  0.00333333708670333  0.9998857890532402  1.0000
  Ga  Ga1       1.0  0.002499997957634454  0.0033333415886287725  0.9994118855591134  1.0000
  Ga  Ga2       1.0  0.0008333419368736282  0.009999991398674213  0.0  1.0000
  Ga  Ga3       1.0  0.004166664516198936  0.0016666750314206856  0.9997138933533544  1.0000
  Ni  Ni1       1.0  0.0008333332486500273  1.2400000023744554e-08  0.9997796152736422  1.0000
  Ni  Ni2       1.0  0.004166664516198936  0.0016666750314206856  0.9994873873719473  1.0000
  Ni  Ni3       1.0  0.002499997957634454  0.0033333415886287725  0.9991853793062538  1.0000
  Ni  Ni4       1.0  0.002499997957634454  0.0033333415886287725  0.9996383915405205  1.0000
  Ni  Ni5       1.0  0.0008333313059850006  8.399999918323259e-09  0.9993363832033743  1.0000
  Ni  Ni6       1.0  0.004166668594581889  0.0016666717211813893  0.9999343486573757  1.0000
  Fe  Fe4       1.0  0.0008333314168094911  0.005000008410656003  0.9995628891847813  1.0000
  Fe  Fe5       1.0  0.004166664457507515  0.006666674703044947  0.9992608813905404  1.0000
  Fe  Fe6       1.0  0.002500003158868719  0.008333336758327592  0.9998857890532402  1.0000
  Ga  Ga4       1.0  0.002499997974017578  0.008333341525072178  0.9994118855591134  1.0000
  Ga  Ga5       1.0  0.0008333417484854248  0.004999991462230807  0.0  1.0000
  Ga  Ga6       1.0  0.004166664457507515  0.006666674703044947  0.9997138933533544  1.0000
  Ni  Ni7       1.0  0.000833333155873445  0.005000012118124016  0.9997796152736422  1.0000
  Ni  Ni8       1.0  0.004166664457507515  0.006666674703044947  0.9994873873719473  1.0000
  Ni  Ni9       1.0  0.002499997974017578  0.008333341525072178  0.9991853793062538  1.0000
  Ni  Ni10      1.0  0.002499997974017578  0.008333341525072178  0.9996383915405205  1.0000
  Ni  Ni11      1.0  0.0008333314168094911  0.005000008410656003  0.9993363832033743  1.0000
  Ni  Ni12      1.0  0.004166668544760228  0.006666671525215223  0.9999343486573757  1.0000
  Fe  Fe7       1.0  0.005833331209662157  8.399999918323259e-09  0.9995628891847813  1.0000
  Fe  Fe8       1.0  0.00916666430520604  0.0016666750314206856  0.9992608813905404  1.0000
  Fe  Fe9       1.0  0.007500002891897193  0.00333333708670333  0.9998857890532402  1.0000
  Ga  Ga7       1.0  0.0074999978039765845  0.0033333415886287725  0.9994118855591134  1.0000
  Ga  Ga8       1.0  0.005833341611210681  0.009999991398674213  0.0  1.0000
  Ga  Ga9       1.0  0.00916666430520604  0.0016666750314206856  0.9997138933533544  1.0000
  Ni  Ni13      1.0  0.005833333209662209  1.2400000023744554e-08  0.9997796152736422  1.0000
  Ni  Ni14      1.0  0.00916666430520604  0.0016666750314206856  0.9994873873719473  1.0000
  Ni  Ni15      1.0  0.0074999978039765845  0.0033333415886287725  0.9991853793062538  1.0000
  Ni  Ni16      1.0  0.0074999978039765845  0.0033333415886287725  0.9996383915405205  1.0000
  Ni  Ni17      1.0  0.005833331209662157  8.399999918323259e-09  0.9993363832033743  1.0000
  Ni  Ni18      1.0  0.009166668154248889  0.0016666717211813893  0.9999343486573757  1.0000
  Fe  Fe10      1.0  0.005833331205816596  0.005000008410656003  0.9995628891847813  1.0000
  Fe  Fe11      1.0  0.009166664361184672  0.006666674703044947  0.9992608813905404  1.0000
  Fe  Fe12      1.0  0.007500002947875823  0.008333336758327592  0.9998857890532402  1.0000
  Ga  Ga10      1.0  0.007499997763024682  0.008333341525072178  0.9994118855591134  1.0000
  Ga  Ga11      1.0  0.005833341537492529  0.004999991462230807  0.0  1.0000
  Ga  Ga12      1.0  0.009166664361184672  0.006666674703044947  0.9997138933533544  1.0000
  Ni  Ni19      1.0  0.005833333059550602  0.005000012118124016  0.9997796152736422  1.0000
  Ni  Ni20      1.0  0.009166664361184672  0.006666674703044947  0.9994873873719473  1.0000
  Ni  Ni21      1.0  0.007499997763024682  0.008333341525072178  0.9991853793062538  1.0000
  Ni  Ni22      1.0  0.007499997763024682  0.008333341525072178  0.9996383915405205  1.0000
  Ni  Ni23      1.0  0.005833331205816596  0.005000008410656003  0.9993363832033743  1.0000
  Ni  Ni24      1.0  0.009166668276432307  0.006666671525215223  0.9999343486573757  1.0000
