data_image0
_chemical_formula_structural       HIr3Sn6
_chemical_formula_sum              "H1 Ir3 Sn6"
_cell_length_a       4.572421073913574
_cell_length_b       4.572421160442107
_cell_length_c       103.60029602050781
_cell_angle_alpha    90.0
_cell_angle_beta     90.0
_cell_angle_gamma    119.99999937399886

_space_group_name_H-M_alt    "P 1"
_space_group_IT_number       1

loop_
  _space_group_symop_operation_xyz
  'x, y, z'

loop_
  _atom_site_type_symbol
  _atom_site_label
  _atom_site_symmetry_multiplicity
  _atom_site_fract_x
  _atom_site_fract_y
  _atom_site_fract_z
  _atom_site_occupancy
  H   H1        1.0  0.009999999201383261  0.009999999510799825  0.00015886318443242696  1.0000
  Ir  Ir1       1.0  0.003333333852061547  0.0066666666541230725  0.9993487425835464  1.0000
  Ir  Ir2       1.0  0.009999999201383261  0.009999999510799825  3.9939600553733396e-05  1.0000
  Ir  Ir3       1.0  0.006666667331609668  0.0033333333270615362  0.9997091048499687  1.0000
  Sn  Sn1       1.0  0.003333333852061547  0.0066666666541230725  0.9996190146429461  1.0000
  Sn  Sn2       1.0  5.999999765728327e-10  4.9999997888336143e-11  0.9992586520888574  1.0000
  Sn  Sn3       1.0  0.006666665874321727  0.0033333328566767517  0.0  1.0000
  Sn  Sn4       1.0  7.167817452764839e-10  0.009999999510799825  0.9997925758535288  1.0000
  Sn  Sn5       1.0  0.006666667331609668  0.0033333333270615362  0.9994388330782353  1.0000
  Sn  Sn6       1.0  0.003333333852061547  0.0066666666541230725  0.9990784708118131  1.0000
