data_image0
_chemical_formula_structural       COCa4In2Pt4
_chemical_formula_sum              "C1 O1 Ca4 In2 Pt4"
_cell_length_a       5.773521423339844
_cell_length_b       5.90326694308538
_cell_length_c       102.2119369506836
_cell_angle_alpha    92.93420399537581
_cell_angle_beta     90.0
_cell_angle_gamma    119.27557860544312

_space_group_name_H-M_alt    "P 1"
_space_group_IT_number       1

loop_
  _space_group_symop_operation_xyz
  'x, y, z'

loop_
  _atom_site_type_symbol
  _atom_site_label
  _atom_site_symmetry_multiplicity
  _atom_site_fract_x
  _atom_site_fract_y
  _atom_site_fract_z
  _atom_site_occupancy
  C   C1        1.0  0.0004975747198868533  0.0059452650099997865  1.757680139234514e-05  1.0000
  O   O1        1.0  0.0004975747198868533  0.0059452650099997865  0.0001349801563887873  1.0000
  Ca  Ca1       1.0  0.00879398696188678  0.0004917545858541515  0.9993351298688493  1.0000
  Ca  Ca2       1.0  0.007847597017047946  0.0084486398945106  0.9999548596220459  1.0000
  Ca  Ca3       1.0  0.00950242564841673  0.006024736296790514  0.9995700512060731  1.0000
  Ca  Ca4       1.0  0.0029859344987459334  0.0029917546039718076  0.9997290652986403  1.0000
  In  In1       1.0  0.004491637833784224  0.0019939846627808496  4.049731860543926e-05  1.0000
  In  In2       1.0  0.006290051646302498  0.009508245214851632  0.9996495582283345  1.0000
  Pt  Pt1       1.0  0.00814475290322317  0.003490035260147511  0.9998459655018153  1.0000
  Pt  Pt2       1.0  0.004185465194259878  0.005544831835684397  0.9994555043903374  1.0000
  Pt  Pt3       1.0  0.0026526610839492453  0.008005023286840818  0.9998496895115906  1.0000
  Pt  Pt4       1.0  0.004110947086845163  0.0009716589563719884  0.9994496766843172  1.0000
