data_image0
_chemical_formula_structural       COCa12Ge24Ca12Ge24
_chemical_formula_sum              "C1 O1 Ca24 Ge48"
_cell_length_a       30.974336918065386
_cell_length_b       7.119887828826904
_cell_length_c       98.7746810913086
_cell_angle_alpha    90.0
_cell_angle_beta     82.37365785222477
_cell_angle_gamma    90.0

_space_group_name_H-M_alt    "P 1"
_space_group_IT_number       1

loop_
  _space_group_symop_operation_xyz
  'x, y, z'

loop_
  _atom_site_type_symbol
  _atom_site_label
  _atom_site_symmetry_multiplicity
  _atom_site_fract_x
  _atom_site_fract_y
  _atom_site_fract_z
  _atom_site_occupancy
  C   C1        1.0  0.004955278320861883  0.008126299435213652  0.9997546449089988  1.0000
  O   O1        1.0  0.004955278320861883  0.008126299435213652  0.9998761331748324  1.0000
  Ca  Ca1       1.0  0.00413486779711688  0.003279541132189312  0.9995843697389697  1.0000
  Ca  Ca2       1.0  0.004189270478084726  0.008347088626370567  0.9993735813807033  1.0000
  Ca  Ca3       1.0  0.006018253626451921  0.001679241214178802  0.9997031848818113  1.0000
  Ca  Ca4       1.0  0.0059719212621791645  0.006652373479279056  0.9995223991342848  1.0000
  Ca  Ca5       1.0  0.0007759990885099798  0.00993888682185505  0.9997259039018063  1.0000
  Ca  Ca6       1.0  0.0008128689008888576  0.004973592047463189  0.9995176012143147  1.0000
  Ca  Ca7       1.0  0.0025906857220588013  0.0032137167793468927  0.9996440840515267  1.0000
  Ca  Ca8       1.0  0.002581676448988741  0.008347088626370567  0.999440484023017  1.0000
  Ca  Ca9       1.0  0.007469421988920234  0.0016134368746227351  0.9996529450349636  1.0000
  Ca  Ca10      1.0  0.007522603953794489  0.0066804219038934295  0.9994429424693362  1.0000
  Ca  Ca11      1.0  0.00924834315772117  1.3755300122548912e-05  0.9993711230232588  1.0000
  Ca  Ca12      1.0  0.00927508048047727  0.004682067792377276  0.9995947351757939  1.0000
  Ge  Ge1       1.0  0.005248783124187017  0.00331114590470795  0.9995486727196363  1.0000
  Ge  Ge2       1.0  0.005246720769244007  0.009613976742570916  0.9996010068417508  1.0000
  Ge  Ge3       1.0  0.004866943130111534  0.001680421998073601  0.9993453789301943  1.0000
  Ge  Ge4       1.0  0.004813582062160327  0.006638621604633215  0.9995544451685168  1.0000
  Ge  Ge5       1.0  0.0034792306480455277  0.00998624479765478  0.9996211140762825  1.0000
  Ge  Ge6       1.0  0.0035561323643224585  0.005013755181416291  0.9993999304539106  1.0000
  Ge  Ge7       1.0  0.0066666824833936785  0.009907487152820077  0.9994883405812917  1.0000
  Ge  Ge8       1.0  0.0066624888503723535  0.004896970722842273  0.9997227888186652  1.0000
  Ge  Ge9       1.0  0.0019232869855600478  0.009863640004508593  0.999689034060356  1.0000
  Ge  Ge10      1.0  0.0019056454538237825  0.005064956754642053  0.9994667161087892  1.0000
  Ge  Ge11      1.0  0.0014974729390685624  0.0026320003953725435  0.9996247697658589  1.0000
  Ge  Ge12      1.0  0.001521965527528902  0.008495652090779706  0.9995006214463183  1.0000
  Ge  Ge13      1.0  0.00011851870060754559  0.0016313576607021791  0.9995483177047455  1.0000
  Ge  Ge14      1.0  0.00012247870179500384  0.006680021638166379  0.9997747255074616  1.0000
  Ge  Ge15      1.0  0.003214814805438104  0.001680421998073601  0.99941413493971  1.0000
  Ge  Ge16      1.0  0.003264956386371898  0.006555991585097987  0.9996323076261071  1.0000
  Ge  Ge17      1.0  0.008566757418956177  0.001419117936185793  0.999612936700016  1.0000
  Ge  Ge18      1.0  0.008570670505694362  0.0066804219038934295  0.9993993254737679  1.0000
  Ge  Ge19      1.0  0.008200276605821297  1.3755300122548912e-05  0.9994147400188271  1.0000
  Ge  Ge20      1.0  0.0081707338202338  0.004333907506583235  0.9995620467500208  1.0000
  Ge  Ge21      1.0  0.0068233175889853195  0.0034620531473188165  0.9994825527228746  1.0000
  Ge  Ge22      1.0  0.00673898139620519  0.008406907685249298  0.9997195463196872  1.0000
  Ge  Ge23      1.0  0.0001420595006127053  0.0032840429443664917  0.9997789493489755  1.0000
  Ge  Ge24      1.0  0.00987955773355942  0.008209220366832854  0.9995610293256906  1.0000
  Ca  Ca13      1.0  0.004189270478084726  0.003347088720550739  0.9991654981935797  1.0000
  Ca  Ca14      1.0  0.004189270478084726  0.008347088626370567  0.998957415006456  1.0000
  Ca  Ca15      1.0  0.0059150101673856  0.001680421998073601  0.9993017619144263  1.0000
  Ca  Ca16      1.0  0.0059150101673856  0.0066804219038934295  0.9990936787273026  1.0000
  Ca  Ca17      1.0  0.0008559372450620592  1.3755300122548912e-05  0.9993042202819707  1.0000
  Ca  Ca18      1.0  0.0008559372450620592  0.005013755181416291  0.999096137094847  1.0000
  Ca  Ca19      1.0  0.002581676448988741  0.003347088720550739  0.9992324008358933  1.0000
  Ca  Ca20      1.0  0.002581676448988741  0.008347088626370567  0.9990243176487696  1.0000
  Ca  Ca21      1.0  0.007522603953794489  0.001680421998073601  0.9992348592822125  1.0000
  Ca  Ca22      1.0  0.007522603953794489  0.0066804219038934295  0.9990267760950887  1.0000
  Ca  Ca23      1.0  0.00924834315772117  1.3755300122548912e-05  0.9989549566490113  1.0000
  Ca  Ca24      1.0  0.00924834315772117  0.005013755181416291  0.9991630398361351  1.0000
  Ge  Ge25      1.0  0.005237337515358792  0.003347088720550739  0.9991218811778118  1.0000
  Ge  Ge26      1.0  0.005237337515358792  0.008347088626370567  0.9993299643649355  1.0000
  Ge  Ge27      1.0  0.004866943130111534  0.001680421998073601  0.9989292125559468  1.0000
  Ge  Ge28      1.0  0.004866943130111534  0.0066804219038934295  0.9991372957430705  1.0000
  Ge  Ge29      1.0  0.0035561323643224585  1.3755300122548912e-05  0.9991918472667869  1.0000
  Ge  Ge30      1.0  0.0035561323643224585  0.005013755181416291  0.9989837640796632  1.0000
  Ge  Ge31      1.0  0.006548148281147867  1.3755300122548912e-05  0.9990673296540954  1.0000
  Ge  Ge32      1.0  0.006548148281147867  0.005013755181416291  0.9992754128412191  1.0000
  Ge  Ge33      1.0  0.0019040041609925775  1.3755300122548912e-05  0.9992606032712527  1.0000
  Ge  Ge34      1.0  0.0019040041609925775  0.005013755181416291  0.9990525200841289  1.0000
  Ge  Ge35      1.0  0.0015336096544017706  0.003347088720550739  0.9992760178415614  1.0000
  Ge  Ge36      1.0  0.0015336096544017706  0.008347088626370567  0.9990679346544377  1.0000
  Ge  Ge37      1.0  0.000222799100963905  0.001680421998073601  0.9991224861693168  1.0000
  Ge  Ge38      1.0  0.000222799100963905  0.0066804219038934295  0.9993305693564404  1.0000
  Ge  Ge39      1.0  0.003214814805438104  0.001680421998073601  0.9989979685654625  1.0000
  Ge  Ge40      1.0  0.003214814805438104  0.0066804219038934295  0.9992060517525863  1.0000
  Ge  Ge41      1.0  0.008570670505694362  0.001680421998073601  0.9991912422866442  1.0000
  Ge  Ge42      1.0  0.008570670505694362  0.0066804219038934295  0.9989831590995205  1.0000
  Ge  Ge43      1.0  0.008200276605821297  1.3755300122548912e-05  0.9989985736445797  1.0000
  Ge  Ge44      1.0  0.008200276605821297  0.005013755181416291  0.9992066568317034  1.0000
  Ge  Ge45      1.0  0.006889465840032222  0.003347088720550739  0.999053125168296  1.0000
  Ge  Ge46      1.0  0.006889465840032222  0.008347088626370567  0.9992612083554198  1.0000
  Ge  Ge47      1.0  0.00988148175685763  0.003347088720550739  0.9993447739298519  1.0000
  Ge  Ge48      1.0  0.00988148175685763  0.008347088626370567  0.9991366907427283  1.0000
