data_image0
_chemical_formula_structural       HSn4Ir4Sn4Ir4Sn4Ir4Sn4Ir4
_chemical_formula_sum              "H1 Sn16 Ir16"
_cell_length_a       6.984967807705319
_cell_length_b       8.092313043838175
_cell_length_c       111.90980529785156
_cell_angle_alpha    73.16400476317556
_cell_angle_beta     109.20208758075485
_cell_angle_gamma    73.16400621425018

_space_group_name_H-M_alt    "P 1"
_space_group_IT_number       1

loop_
  _space_group_symop_operation_xyz
  'x, y, z'

loop_
  _atom_site_type_symbol
  _atom_site_label
  _atom_site_symmetry_multiplicity
  _atom_site_fract_x
  _atom_site_fract_y
  _atom_site_fract_z
  _atom_site_occupancy
  H   H1        1.0  0.005265945701337764  0.0014475919246646066  6.167306797042385e-05  1.0000
  Sn  Sn1       1.0  0.0018750000499332571  0.004166666481824179  0.999639145555493  1.0000
  Sn  Sn2       1.0  0.0068749999750333714  0.004166667047666603  0.9999512259067795  1.0000
  Sn  Sn3       1.0  0.0010416665730418094  0.0008333333656828668  0.9998992123161665  1.0000
  Sn  Sn4       1.0  0.006041666342100495  0.0008333333869075964  0.9995871322658741  1.0000
  Ir  Ir1       1.0  0.003958333196016876  0.0025000001748481313  0.9999252191105379  1.0000
  Ir  Ir2       1.0  0.008958332809034132  0.002500000132419653  0.9996131390583753  1.0000
  Ir  Ir3       1.0  0.0014583332334668188  0.0025000001324091627  0.9994570987249671  1.0000
  Ir  Ir4       1.0  0.006458333158566933  0.0025000002172870994  0.9997691790863268  1.0000
  Sn  Sn5       1.0  0.0018750000499332571  0.004166666481824179  0.9990149851457111  1.0000
  Sn  Sn6       1.0  0.0068749999750333714  0.004166667047666603  0.9993270654969976  1.0000
  Sn  Sn7       1.0  0.0010416665730418094  0.0008333333656828668  0.9992750519063847  1.0000
  Sn  Sn8       1.0  0.006041666342100495  0.0008333333869075964  0.9989629715897856  1.0000
  Ir  Ir5       1.0  0.003958333196016876  0.0025000001748481313  0.999301058700756  1.0000
  Ir  Ir6       1.0  0.008958332809034132  0.002500000132419653  0.9989889783822868  1.0000
  Ir  Ir7       1.0  0.0014583332334668188  0.0025000001324091627  0.9988329383151853  1.0000
  Ir  Ir8       1.0  0.006458333158566933  0.0025000002172870994  0.9991450186765449  1.0000
  Sn  Sn9       1.0  0.0018750000499332571  0.009166666520301337  0.9996391453522941  1.0000
  Sn  Sn10      1.0  0.0068749999750333714  0.009166667086143762  0.9999512257035806  1.0000
  Sn  Sn11      1.0  0.0010416665730418094  0.005833333283918904  0.9998992126480992  1.0000
  Sn  Sn12      1.0  0.006041666342100495  0.005833333425384756  0.9995871320626752  1.0000
  Ir  Ir9       1.0  0.003958333196016876  0.007499999972843047  0.9999252189123756  1.0000
  Ir  Ir10      1.0  0.008958332809034132  0.007500000651861299  0.9996131388451033  1.0000
  Ir  Ir11      1.0  0.0014583332334668188  0.007500000170886322  0.9994570985217682  1.0000
  Ir  Ir12      1.0  0.006458333158566933  0.0075000002557642585  0.9997691788831279  1.0000
  Sn  Sn13      1.0  0.0018750000499332571  0.009166666520301337  0.9990149849425122  1.0000
  Sn  Sn14      1.0  0.0068749999750333714  0.009166667086143762  0.9993270652937988  1.0000
  Sn  Sn15      1.0  0.0010416665730418094  0.005833333283918904  0.9992750517057041  1.0000
  Sn  Sn16      1.0  0.006041666342100495  0.005833333425384756  0.9989629716528934  1.0000
  Ir  Ir13      1.0  0.003958333196016876  0.007499999972843047  0.9993010585025938  1.0000
  Ir  Ir14      1.0  0.008958332809034132  0.007500000651861299  0.9989889784353214  1.0000
  Ir  Ir15      1.0  0.0014583332334668188  0.007500000170886322  0.9988329381119864  1.0000
  Ir  Ir16      1.0  0.006458333158566933  0.0075000002557642585  0.999145018473346  1.0000
