data_image0
_chemical_formula_structural       COCaCu5CaCu5CaCu5CaCu5
_chemical_formula_sum              "C1 O1 Ca4 Cu20"
_cell_length_a       5.199088739236082
_cell_length_b       8.199666023254395
_cell_length_c       106.39362335205078
_cell_angle_alpha    90.0
_cell_angle_beta     119.99999894520607
_cell_angle_gamma    90.0

_space_group_name_H-M_alt    "P 1"
_space_group_IT_number       1

loop_
  _space_group_symop_operation_xyz
  'x, y, z'

loop_
  _atom_site_type_symbol
  _atom_site_label
  _atom_site_symmetry_multiplicity
  _atom_site_fract_x
  _atom_site_fract_y
  _atom_site_fract_z
  _atom_site_occupancy
  C   C1        1.0  0.00025025244216696934  0.002500004897593305  0.00020242103972277657  1.0000
  O   O1        1.0  0.00025025244216696934  0.002500004897593305  0.0003152099827122228  1.0000
  Ca  Ca1       1.0  1.5798499378211028e-06  1.4000000545480906e-09  0.9995266765271461  1.0000
  Cu  Cu1       1.0  0.006668246533207195  1.4000000545480906e-09  0.9996895650043123  1.0000
  Cu  Cu2       1.0  0.0033349129957880932  1.4000000545480906e-09  0.9993637878553273  1.0000
  Cu  Cu3       1.0  1.5798499378211028e-06  0.0025000014901768127  0.9992823436215278  1.0000
  Cu  Cu4       1.0  0.00500157955765396  0.0025000014901768127  0.9992823436592045  1.0000
  Cu  Cu5       1.0  0.00500157955765396  0.0025000014901768127  0.999526676284709  1.0000
  Ca  Ca2       1.0  0.00999841991282621  0.009999998691552067  1.4928523627038666e-05  1.0000
  Cu  Cu6       1.0  0.0064595569764396505  0.00999998869646369  0.00015782810946604915  1.0000
  Cu  Cu7       1.0  0.0033349129957880932  1.4000000545480906e-09  0.9998524533864499  1.0000
  Cu  Cu8       1.0  1.5798499378211028e-06  0.0025000014901768127  0.9997710091526505  1.0000
  Cu  Cu9       1.0  0.00500157955765396  0.0025000014901768127  0.9997710089102134  1.0000
  Cu  Cu10      1.0  0.0049836747547025865  0.0025000173914537763  1.3462597178825683e-05  1.0000
  Ca  Ca3       1.0  1.5798499378211028e-06  0.005000001617387028  0.9995266765271461  1.0000
  Cu  Cu11      1.0  0.006668246533207195  0.005000001617387028  0.9996895650043123  1.0000
  Cu  Cu12      1.0  0.0033349129957880932  0.005000001617387028  0.9993637878553273  1.0000
  Cu  Cu13      1.0  1.5798499378211028e-06  0.007500001744597244  0.9992823436215278  1.0000
  Cu  Cu14      1.0  0.00500157955765396  0.007500001744597244  0.9992823436592045  1.0000
  Cu  Cu15      1.0  0.00500157955765396  0.007500001744597244  0.999526676284709  1.0000
  Ca  Ca4       1.0  0.00999841991282621  0.004999998891453835  1.4928523627038666e-05  1.0000
  Cu  Cu16      1.0  0.0064595569764396505  0.004999988442043258  0.00015782810946604915  1.0000
  Cu  Cu17      1.0  0.0033349129957880932  0.005000001617387028  0.9998524533864499  1.0000
  Cu  Cu18      1.0  1.5798499378211028e-06  0.007500001744597244  0.9997710091526505  1.0000
  Cu  Cu19      1.0  0.00500157955765396  0.007500001744597244  0.9997710089102134  1.0000
  Cu  Cu20      1.0  0.0049836747547025865  0.007500017645874208  1.3462597178825683e-05  1.0000
