data_image0
_chemical_formula_structural       COCo12Sb24
_chemical_formula_sum              "C1 O1 Co12 Sb24"
_cell_length_a       9.25019754886131
_cell_length_b       9.435446969082136
_cell_length_c       34.65107345581055
_cell_angle_alpha    95.77419310422144
_cell_angle_beta     92.84834308297754
_cell_angle_gamma    78.27545268940081

_space_group_name_H-M_alt    "P 1"
_space_group_IT_number       1

loop_
  _space_group_symop_operation_xyz
  'x, y, z'

loop_
  _atom_site_type_symbol
  _atom_site_label
  _atom_site_symmetry_multiplicity
  _atom_site_fract_x
  _atom_site_fract_y
  _atom_site_fract_z
  _atom_site_occupancy
  C   C1        1.0  0.003741445183239607  0.0009817522913783928  0.0003518601378368556  1.0000
  O   O1        1.0  0.003741445183239607  0.0009817522913783928  0.0006981700272790146  1.0000
  Co  Co1       1.0  0.009485118177875528  0.006621466721265689  0.9990434782634383  1.0000
  Co  Co2       1.0  0.00368400314907732  0.0008074852099136233  0.9998492297877221  1.0000
  Co  Co3       1.0  0.0053184511767305495  0.002454800378574997  0.9981933619433401  1.0000
  Co  Co4       1.0  0.007922598530802264  0.005712115163195251  0.9977539562254163  1.0000
  Co  Co5       1.0  0.002089265177110438  0.009878781505885944  0.9986040722397832  1.0000
  Co  Co6       1.0  0.006251161415068765  0.0040407559151274175  0.9994621041263757  1.0000
  Co  Co7       1.0  0.0029163945409506845  0.005705911023290295  0.9977526903260604  1.0000
  Co  Co8       1.0  0.007083061138872021  0.009872577365980987  0.9986028064257922  1.0000
  Co  Co9       1.0  0.0012487418727971963  0.004038381576206873  0.9994538203715951  1.0000
  Co  Co10      1.0  0.004478913784800306  0.006615262581360734  0.9990422123587334  1.0000
  Co  Co11      1.0  0.008863771772956877  0.0009906569735128646  0.9998388554384173  1.0000
  Co  Co12      1.0  0.0003122469255003316  0.002448596036185058  0.9981920964650043  1.0000
  Sb  Sb1       1.0  0.0014880132489354326  0.009364860847913029  0.9998735289897841  1.0000
  Sb  Sb2       1.0  0.0030252769930416853  0.001324392926368192  0.9981219250545078  1.0000
  Sb  Sb3       1.0  0.007191943549923928  0.005491059471543868  0.9989720413742598  1.0000
  Sb  Sb4       1.0  0.009687753402945315  0.0063606846906941765  0.999781772713265  1.0000
  Sb  Sb5       1.0  0.0014127436676077733  0.008039493766287568  0.9980696086677217  1.0000
  Sb  Sb6       1.0  0.005579410246898525  0.0022061603600596405  0.9989197249374981  1.0000
  Sb  Sb7       1.0  0.0035812846586009296  0.005044978977587809  0.9994980799625349  1.0000
  Sb  Sb8       1.0  0.005209568765678642  0.0068363182730121165  0.9978241272098899  1.0000
  Sb  Sb9       1.0  0.009376235645595301  0.0010029853729966493  0.9986742432825049  1.0000
  Sb  Sb10      1.0  0.0052363941638755235  0.008358579323106888  0.9996122899040892  1.0000
  Sb  Sb11      1.0  0.006822102412258008  0.00012121783806270868  0.9978764438270479  1.0000
  Sb  Sb12      1.0  0.0009887686143034461  0.004287884383238385  0.9987265600560857  1.0000
  Sb  Sb13      1.0  0.0016972912351716572  0.00795828837842716  0.9990641692564322  1.0000
  Sb  Sb14      1.0  0.006035082171967766  0.0019647571548668395  0.9999079525470802  1.0000
  Sb  Sb15      1.0  0.0075306243872516635  0.0037916220357364677  0.9982140530243735  1.0000
  Sb  Sb16      1.0  0.008701725593533166  0.007366593238160077  0.998343574007931  1.0000
  Sb  Sb17      1.0  0.002868392159652112  0.001533260135659626  0.9991936901998465  1.0000
  Sb  Sb18      1.0  0.006807037840798054  0.005871957214411032  3.97772489446815e-05  1.0000
  Sb  Sb19      1.0  0.0007042212108959379  0.0043690889611588575  0.9977319994473642  1.0000
  Sb  Sb20      1.0  0.004870888010429096  0.008535755303849549  0.998582115764788  1.0000
  Sb  Sb21      1.0  0.008989405130390163  0.002845864487510959  0.9994042035644003  1.0000
  Sb  Sb22      1.0  0.0036997867220694056  0.004960784506395907  0.998452594791236  1.0000
  Sb  Sb23      1.0  0.007904514331180675  0.009173493909562703  0.9993190417907074  1.0000
  Sb  Sb24      1.0  0.001203014602747751  0.0025293454278618507  8.52513001897732e-05  1.0000
