data_image0
_chemical_formula_structural       HCu4Rh8V4Cu4Rh8V4Cu4Rh8V4Cu4Rh8V4
_chemical_formula_sum              "H1 Cu16 Rh32 V16"
_cell_length_a       8.484365463256836
_cell_length_b       8.484365463256836
_cell_length_c       105.9961166381836
_cell_angle_alpha    90.0
_cell_angle_beta     90.0
_cell_angle_gamma    90.0

_space_group_name_H-M_alt    "P 1"
_space_group_IT_number       1

loop_
  _space_group_symop_operation_xyz
  'x, y, z'

loop_
  _atom_site_type_symbol
  _atom_site_label
  _atom_site_symmetry_multiplicity
  _atom_site_fract_x
  _atom_site_fract_y
  _atom_site_fract_z
  _atom_site_occupancy
  H   H1        1.0  0.002500000096596955  0.002500000096596955  0.00011623556489062969  1.0000
  Cu  Cu1       1.0  0.0012500000482984774  0.0037500000351261657  0.9991510041964646  1.0000
  Cu  Cu2       1.0  0.0037500000351261657  0.0012500000482984774  0.9994340027976432  1.0000
  Cu  Cu3       1.0  0.0012500000482984774  0.0037500000351261657  0.9997170013988216  1.0000
  Cu  Cu4       1.0  0.0037500000351261657  0.0012500000482984774  0.0  1.0000
  Rh  Rh1       1.0  0.0037500000351261657  0.0037500000351261657  0.9990095048958755  1.0000
  Rh  Rh2       1.0  0.0012500000482984774  0.0012500000482984774  0.9990095048958755  1.0000
  Rh  Rh3       1.0  0.0012500000482984774  0.0012500000482984774  0.9992925034970539  1.0000
  Rh  Rh4       1.0  0.0037500000351261657  0.0037500000351261657  0.9992925034970539  1.0000
  Rh  Rh5       1.0  0.0037500000351261657  0.0037500000351261657  0.9995755020982323  1.0000
  Rh  Rh6       1.0  0.0012500000482984774  0.0012500000482984774  0.9995755020982323  1.0000
  Rh  Rh7       1.0  0.0012500000482984774  0.0012500000482984774  0.9998585006994107  1.0000
  Rh  Rh8       1.0  0.0037500000351261657  0.0037500000351261657  0.9998585006994107  1.0000
  V   V1        1.0  0.0037500000351261657  0.0012500000482984774  0.9991510041964646  1.0000
  V   V2        1.0  0.0012500000482984774  0.0037500000351261657  0.9994340027976432  1.0000
  V   V3        1.0  0.0037500000351261657  0.0012500000482984774  0.9997170013988216  1.0000
  V   V4        1.0  0.0012500000482984774  0.0037500000351261657  0.0  1.0000
  Cu  Cu5       1.0  0.0012500000482984774  0.008750000667397142  0.9991510041964646  1.0000
  Cu  Cu6       1.0  0.0037500000351261657  0.006250000351261654  0.9994340027976432  1.0000
  Cu  Cu7       1.0  0.0012500000482984774  0.008750000667397142  0.9997170013988216  1.0000
  Cu  Cu8       1.0  0.0037500000351261657  0.006250000351261654  0.0  1.0000
  Rh  Rh9       1.0  0.0037500000351261657  0.008750000667397142  0.9990095048958755  1.0000
  Rh  Rh10      1.0  0.0012500000482984774  0.006250000351261654  0.9990095048958755  1.0000
  Rh  Rh11      1.0  0.0012500000482984774  0.006250000351261654  0.9992925034970539  1.0000
  Rh  Rh12      1.0  0.0037500000351261657  0.008750000667397142  0.9992925034970539  1.0000
  Rh  Rh13      1.0  0.0037500000351261657  0.008750000667397142  0.9995755020982323  1.0000
  Rh  Rh14      1.0  0.0012500000482984774  0.006250000351261654  0.9995755020982323  1.0000
  Rh  Rh15      1.0  0.0012500000482984774  0.006250000351261654  0.9998585006994107  1.0000
  Rh  Rh16      1.0  0.0037500000351261657  0.008750000667397142  0.9998585006994107  1.0000
  V   V5        1.0  0.0037500000351261657  0.006250000351261654  0.9991510041964646  1.0000
  V   V6        1.0  0.0012500000482984774  0.008750000667397142  0.9994340027976432  1.0000
  V   V7        1.0  0.0037500000351261657  0.006250000351261654  0.9997170013988216  1.0000
  V   V8        1.0  0.0012500000482984774  0.008750000667397142  0.0  1.0000
  Cu  Cu9       1.0  0.006250000351261654  0.0037500000351261657  0.9991510041964646  1.0000
  Cu  Cu10      1.0  0.008750000667397142  0.0012500000482984774  0.9994340027976432  1.0000
  Cu  Cu11      1.0  0.006250000351261654  0.0037500000351261657  0.9997170013988216  1.0000
  Cu  Cu12      1.0  0.008750000667397142  0.0012500000482984774  0.0  1.0000
  Rh  Rh17      1.0  0.008750000667397142  0.0037500000351261657  0.9990095048958755  1.0000
  Rh  Rh18      1.0  0.006250000351261654  0.0012500000482984774  0.9990095048958755  1.0000
  Rh  Rh19      1.0  0.006250000351261654  0.0012500000482984774  0.9992925034970539  1.0000
  Rh  Rh20      1.0  0.008750000667397142  0.0037500000351261657  0.9992925034970539  1.0000
  Rh  Rh21      1.0  0.008750000667397142  0.0037500000351261657  0.9995755020982323  1.0000
  Rh  Rh22      1.0  0.006250000351261654  0.0012500000482984774  0.9995755020982323  1.0000
  Rh  Rh23      1.0  0.006250000351261654  0.0012500000482984774  0.9998585006994107  1.0000
  Rh  Rh24      1.0  0.008750000667397142  0.0037500000351261657  0.9998585006994107  1.0000
  V   V9        1.0  0.008750000667397142  0.0012500000482984774  0.9991510041964646  1.0000
  V   V10       1.0  0.006250000351261654  0.0037500000351261657  0.9994340027976432  1.0000
  V   V11       1.0  0.008750000667397142  0.0012500000482984774  0.9997170013988216  1.0000
  V   V12       1.0  0.006250000351261654  0.0037500000351261657  0.0  1.0000
  Cu  Cu13      1.0  0.006250000351261654  0.008750000667397142  0.9991510041964646  1.0000
  Cu  Cu14      1.0  0.008750000667397142  0.006250000351261654  0.9994340027976432  1.0000
  Cu  Cu15      1.0  0.006250000351261654  0.008750000667397142  0.9997170013988216  1.0000
  Cu  Cu16      1.0  0.008750000667397142  0.006250000351261654  0.0  1.0000
  Rh  Rh25      1.0  0.008750000667397142  0.008750000667397142  0.9990095048958755  1.0000
  Rh  Rh26      1.0  0.006250000351261654  0.006250000351261654  0.9990095048958755  1.0000
  Rh  Rh27      1.0  0.006250000351261654  0.006250000351261654  0.9992925034970539  1.0000
  Rh  Rh28      1.0  0.008750000667397142  0.008750000667397142  0.9992925034970539  1.0000
  Rh  Rh29      1.0  0.008750000667397142  0.008750000667397142  0.9995755020982323  1.0000
  Rh  Rh30      1.0  0.006250000351261654  0.006250000351261654  0.9995755020982323  1.0000
  Rh  Rh31      1.0  0.006250000351261654  0.006250000351261654  0.9998585006994107  1.0000
  Rh  Rh32      1.0  0.008750000667397142  0.008750000667397142  0.9998585006994107  1.0000
  V   V13       1.0  0.008750000667397142  0.006250000351261654  0.9991510041964646  1.0000
  V   V14       1.0  0.006250000351261654  0.008750000667397142  0.9994340027976432  1.0000
  V   V15       1.0  0.008750000667397142  0.006250000351261654  0.9997170013988216  1.0000
  V   V16       1.0  0.006250000351261654  0.008750000667397142  0.0  1.0000
