data_image0
_chemical_formula_structural       COGe4Na8Zn4
_chemical_formula_sum              "C1 O1 Ge4 Na8 Zn4"
_cell_length_a       6.018742800024277
_cell_length_b       6.01874303817749
_cell_length_c       103.65108489990234
_cell_angle_alpha    90.0
_cell_angle_beta     90.0
_cell_angle_gamma    102.4138785443101

_space_group_name_H-M_alt    "P 1"
_space_group_IT_number       1

loop_
  _space_group_symop_operation_xyz
  'x, y, z'

loop_
  _atom_site_type_symbol
  _atom_site_label
  _atom_site_symmetry_multiplicity
  _atom_site_fract_x
  _atom_site_fract_y
  _atom_site_fract_z
  _atom_site_occupancy
  C   C1        1.0  0.008747356132992686  0.009146882830977365  4.260896799625784e-05  1.0000
  O   O1        1.0  0.008747356132992686  0.009146882830977365  0.00015838223105745685  1.0000
  Ge  Ge1       1.0  0.007719292736523731  0.006291701317775176  0.9993323590591763  1.0000
  Ge  Ge2       1.0  0.0022807077895016627  0.0008531168222754357  0.9990618111465833  1.0000
  Ge  Ge3       1.0  0.00788619235512059  0.006454571816802902  0.9998672236333204  1.0000
  Ge  Ge4       1.0  0.0022807077895016627  0.0008531168222754357  0.9996029066842439  1.0000
  Na  Na1       1.0  0.003184127092217205  0.008231907241218835  0.9993323590591763  1.0000
  Na  Na2       1.0  0.006815873275366805  0.008912910589339375  0.9990618111465833  1.0000
  Na  Na3       1.0  0.00034050182266151264  0.005388281859099046  0.9990618111465833  1.0000
  Na  Na4       1.0  0.009659498109208691  0.0017565361725670357  0.9993323590591763  1.0000
  Na  Na5       1.0  0.0032713851986158316  0.008180345954720392  0.9998837413940189  1.0000
  Na  Na6       1.0  0.006815873275366805  0.008912910589339375  0.9996029066842439  1.0000
  Na  Na7       1.0  0.00034050182266151264  0.005388281859099046  0.9996029066842439  1.0000
  Na  Na8       1.0  0.009608520544630315  0.001839194779063126  0.9998837868230364  1.0000
  Zn  Zn1       1.0  0.005000000025350621  0.003572408980250377  0.9994676328717101  1.0000
  Zn  Zn2       1.0  0.005000000025350621  0.003572408980250377  0.9991970852466425  1.0000
  Zn  Zn3       1.0  0.005034078548819294  0.0036083858632138277  0.0  1.0000
  Zn  Zn4       1.0  0.0050604181613393045  0.0036324739185247183  0.999733804934838  1.0000
