data_image0
_chemical_formula_structural       COIn2Ni2In2Ni2In2Ni2In2Ni2
_chemical_formula_sum              "C1 O1 In8 Ni8"
_cell_length_a       6.37415885925293
_cell_length_b       4.507210731506348
_cell_length_c       101.55047607421875
_cell_angle_alpha    90.0
_cell_angle_beta     90.0
_cell_angle_gamma    90.0

_space_group_name_H-M_alt    "P 1"
_space_group_IT_number       1

loop_
  _space_group_symop_operation_xyz
  'x, y, z'

loop_
  _atom_site_type_symbol
  _atom_site_label
  _atom_site_symmetry_multiplicity
  _atom_site_fract_x
  _atom_site_fract_y
  _atom_site_fract_z
  _atom_site_occupancy
  C   C1        1.0  0.0024999999415563625  0.005000000958760751  0.00013589384436588946  1.0000
  O   O1        1.0  0.0024999999415563625  0.005000000958760751  0.00025406133286963656  1.0000
  In  In1       1.0  1.0000000186949011e-10  0.005000000132242862  0.9993132388546563  1.0000
  In  In2       1.0  1.0000000186949011e-10  5.0000002904396103e-11  0.9995351587316077  1.0000
  Ni  Ni1       1.0  0.00250000023377455  0.005000000132242862  0.9995351587316077  1.0000
  Ni  Ni2       1.0  0.00250000023377455  5.0000002904396103e-11  0.9993132388546563  1.0000
  In  In3       1.0  0.00999999976622545  0.005000000132242862  0.9997586161135814  1.0000
  In  In4       1.0  0.00999999976622545  1.1500000267738625e-09  0.0  1.0000
  Ni  Ni3       1.0  0.0024999999415563625  0.005000000958760751  0.9999653332089571  1.0000
  Ni  Ni4       1.0  0.00250000023377455  0.010000000264485723  0.9997558574674256  1.0000
  In  In5       1.0  0.004999999883112725  0.005000000132242862  0.9993132388546563  1.0000
  In  In6       1.0  0.004999999883112725  5.0000002904396103e-11  0.9995351587316077  1.0000
  Ni  Ni5       1.0  0.007500000116887275  0.005000000132242862  0.9995351587316077  1.0000
  Ni  Ni6       1.0  0.007500000116887275  5.0000002904396103e-11  0.9993132388546563  1.0000
  In  In7       1.0  0.004999999883112725  0.005000000132242862  0.9997586161135814  1.0000
  In  In8       1.0  0.00499999929867635  1.1500000267738625e-09  0.0  1.0000
  Ni  Ni7       1.0  0.007500000116887275  0.005000000958760751  0.9999653332089571  1.0000
  Ni  Ni8       1.0  0.007500000116887275  0.010000000264485723  0.9997558574674256  1.0000
