data_image0
_chemical_formula_structural       COGa20Rh12
_chemical_formula_sum              "C1 O1 Ga20 Rh12"
_cell_length_a       7.593984100473404
_cell_length_b       8.020861767308542
_cell_length_c       106.80101013183594
_cell_angle_alpha    89.98923247939167
_cell_angle_beta     73.20487771875095
_cell_angle_gamma    109.74987067912468

_space_group_name_H-M_alt    "P 1"
_space_group_IT_number       1

loop_
  _space_group_symop_operation_xyz
  'x, y, z'

loop_
  _atom_site_type_symbol
  _atom_site_label
  _atom_site_symmetry_multiplicity
  _atom_site_fract_x
  _atom_site_fract_y
  _atom_site_fract_z
  _atom_site_occupancy
  C   C1        1.0  0.0008554336136471817  0.0023847562032285096  0.9999823910006173  1.0000
  O   O1        1.0  0.0008554336136471817  0.0023847562032285096  9.474971617515229e-05  1.0000
  Ga  Ga1       1.0  0.008380207727235125  0.001501091227504717  0.999766968844635  1.0000
  Ga  Ga2       1.0  0.0033802075081634853  0.001501091155083509  0.9993362494897601  1.0000
  Ga  Ga3       1.0  0.0016197925739883797  0.0022930834554508723  0.9995688660490092  1.0000
  Ga  Ga4       1.0  0.006619792929979796  0.0022930836587683303  0.9991381465372118  1.0000
  Ga  Ga5       1.0  0.009542117705965898  0.006441395709236945  0.9991233008787661  1.0000
  Ga  Ga6       1.0  0.00454211803457336  0.0064413958701193975  0.9995540200974476  1.0000
  Ga  Ga7       1.0  0.00045788211603839255  0.007352778829666178  0.9993510955005408  1.0000
  Ga  Ga8       1.0  0.005457882403569921  0.007352779330387181  0.9997818148540031  1.0000
  Ga  Ga9       1.0  0.0015289843665657417  0.004155724459286887  0.9998438623724116  1.0000
  Ga  Ga10      1.0  0.006528984448717607  0.004155724429839978  0.9994131425871983  1.0000
  Ga  Ga11      1.0  0.008471015660818213  0.009638450609784148  0.9994919725874802  1.0000
  Ga  Ga12      1.0  0.0034710157155861234  0.009638450683042903  0.9999226918117892  1.0000
  Ga  Ga13      1.0  0.009228916457643111  0.008175871144037882  0.9997570844218068  1.0000
  Ga  Ga14      1.0  0.00422891623857147  0.008175871129672942  0.9993263650669311  1.0000
  Ga  Ga15      1.0  0.0007710837066606191  0.005618303968844999  0.9995787499771807  1.0000
  Ga  Ga16      1.0  0.005771083651892709  0.005618303895586243  0.9991480307528717  1.0000
  Ga  Ga17      1.0  0.00026309600411574273  0.0034326248373003423  0.9992953076369655  1.0000
  Ga  Ga18      1.0  0.005263095949347832  0.0034326248801541206  0.999726026997467  1.0000
  Ga  Ga19      1.0  0.009736904160187987  0.0003615498018433983  0.9991790886746802  1.0000
  Ga  Ga20      1.0  0.004736903941116347  0.0003615497874784575  0.9996098079046165  1.0000
  Rh  Rh1       1.0  0.00819179625776565  0.004653251777997232  0.9998118161494581  1.0000
  Rh  Rh2       1.0  0.0031917963125335617  0.004653251851255989  0.9993810967889549  1.0000
  Rh  Rh3       1.0  0.0018082036326985279  0.009140923015036884  0.99952401825516  1.0000
  Rh  Rh4       1.0  0.006808203851770169  0.009140923029401825  0.9999547376100358  1.0000
  Rh  Rh5       1.0  0.007689104612141545  0.006399254638696814  0.999585309995  1.0000
  Rh  Rh6       1.0  0.002689104393069905  0.006399254624331874  0.9991545909191695  1.0000
  Rh  Rh7       1.0  0.0023108958260017356  0.007394920561809765  0.9997505243983602  1.0000
  Rh  Rh8       1.0  0.007310895497394274  0.0073949204009273115  0.9993198051796787  1.0000
  Rh  Rh9       1.0  0.008254234961520503  0.002679200239586324  0.9995557325200289  1.0000
  Rh  Rh10      1.0  0.0032542350162884145  0.002679200240274746  0.9991250128804814  1.0000
  Rh  Rh11      1.0  0.001745764928943675  0.0011149743845040537  0.9997801023820553  1.0000
  Rh  Rh12      1.0  0.006745765148015315  0.0011149745149815296  0.9993493831521173  1.0000
