data_image0
_chemical_formula_structural       CORe6Ni2Re6Ni2Re6Ni2Re6Ni2
_chemical_formula_sum              "C1 O1 Re24 Ni8"
_cell_length_a       5.430757761197256
_cell_length_b       8.766426086425781
_cell_length_c       108.01530456542969
_cell_angle_alpha    90.0
_cell_angle_beta     59.9999985489409
_cell_angle_gamma    90.0

_space_group_name_H-M_alt    "P 1"
_space_group_IT_number       1

loop_
  _space_group_symop_operation_xyz
  'x, y, z'

loop_
  _atom_site_type_symbol
  _atom_site_label
  _atom_site_symmetry_multiplicity
  _atom_site_fract_x
  _atom_site_fract_y
  _atom_site_fract_z
  _atom_site_occupancy
  C   C1        1.0  0.0012186843357733454  0.004999991535001606  0.9999293167040667  1.0000
  O   O1        1.0  0.0012186843357733454  0.004999991535001606  4.041229711232178e-05  1.0000
  Re  Re1       1.0  0.0037764498651106718  0.003750017660910305  0.9991640767565808  1.0000
  Re  Re2       1.0  0.00878131605630627  0.003750017660910305  0.9989124438413319  1.0000
  Re  Re3       1.0  0.00878131605630627  0.003750017660910305  0.9991640766535902  1.0000
  Re  Re4       1.0  0.007116271157661591  0.0012500178563871751  0.9993315058951578  1.0000
  Re  Re5       1.0  0.0021114051644860006  0.0012500178563871751  0.9990803620904743  1.0000
  Re  Re6       1.0  0.0021114051644860006  0.0012500178563871751  0.9993315054413537  1.0000
  Ni  Ni1       1.0  0.007113027589934414  0.0012500178563871751  0.9990801990771969  1.0000
  Ni  Ni2       1.0  0.003779693828877864  0.003750017660910305  0.9989126065737229  1.0000
  Re  Re7       1.0  0.003840026564843448  0.0037500010878712795  0.9996718687500135  1.0000
  Re  Re8       1.0  0.00878131605630627  0.003750017660910305  0.9994152200044696  1.0000
  Re  Re9       1.0  0.008617371331478168  0.0037500180858600234  0.9996718703464956  1.0000
  Re  Re10      1.0  0.0073016677859708  0.0012500283738927102  0.999816444572844  1.0000
  Re  Re11      1.0  0.002107874269727558  0.0012500140318397078  0.9995835421035093  1.0000
  Re  Re12      1.0  0.002280069300159146  0.0012499818418985247  0.9998164470292111  1.0000
  Ni  Ni3       1.0  0.007165118733176854  0.0012500136068899893  0.9995776898905934  1.0000
  Ni  Ni4       1.0  0.003779693828877864  0.003750017660910305  0.9994153835645857  1.0000
  Re  Re13      1.0  0.0037764498651106718  0.008750017269956563  0.9991640767565808  1.0000
  Re  Re14      1.0  0.00878131605630627  0.008750017269956563  0.9989124438413319  1.0000
  Re  Re15      1.0  0.00878131605630627  0.008750017269956563  0.9991640766535902  1.0000
  Re  Re16      1.0  0.007116271157661591  0.006250017677908294  0.9993315058951578  1.0000
  Re  Re17      1.0  0.0021114051644860006  0.006250017677908294  0.9990803620904743  1.0000
  Re  Re18      1.0  0.0021114051644860006  0.006250017677908294  0.9993315054413537  1.0000
  Ni  Ni5       1.0  0.007113027589934414  0.006250017677908294  0.9990801990771969  1.0000
  Ni  Ni6       1.0  0.003779693828877864  0.008750017269956563  0.9989126065737229  1.0000
  Re  Re19      1.0  0.003840026564843448  0.008750001121867258  0.9996718687500135  1.0000
  Re  Re20      1.0  0.00878131605630627  0.008750017269956563  0.9994152200044696  1.0000
  Re  Re21      1.0  0.008617371331478168  0.008750018119856  0.9996718703464956  1.0000
  Re  Re22      1.0  0.0073016677859708  0.006250028301651258  0.999816444572844  1.0000
  Re  Re23      1.0  0.002107874269727558  0.006250013853360826  0.9995835421035093  1.0000
  Re  Re24      1.0  0.002280069300159146  0.0062499815571822135  0.9998164470292111  1.0000
  Ni  Ni7       1.0  0.007165118733176854  0.006250013428411107  0.9995776898905934  1.0000
  Ni  Ni8       1.0  0.003779693828877864  0.008750017269956563  0.9994153835645857  1.0000
