data_image0
_chemical_formula_structural       HAg24
_chemical_formula_sum              "H1 Ag24"
_cell_length_a       8.420820236206055
_cell_length_b       5.156678530666016
_cell_length_c       103.9454116821289
_cell_angle_alpha    92.90252579926995
_cell_angle_beta     90.0
_cell_angle_gamma    65.90515909791029

_space_group_name_H-M_alt    "P 1"
_space_group_IT_number       1

loop_
  _space_group_symop_operation_xyz
  'x, y, z'

loop_
  _atom_site_type_symbol
  _atom_site_label
  _atom_site_symmetry_multiplicity
  _atom_site_fract_x
  _atom_site_fract_y
  _atom_site_fract_z
  _atom_site_occupancy
  H   H1        1.0  0.009901051596891364  0.00551381347003154  0.00014530134956112773  1.0000
  Ag  Ag1       1.0  0.002043393572016061  0.0019444443308395463  0.9997285568403854  1.0000
  Ag  Ag2       1.0  0.003987837894971767  0.004166666508148204  0.9999099844177476  1.0000
  Ag  Ag3       1.0  9.894897044427914e-05  0.00972222185234581  0.9995471289325487  1.0000
  Ag  Ag4       1.0  0.0005156157631950835  0.008055555566123454  0.9998192704645759  1.0000
  Ag  Ag5       1.0  0.0024600602054929244  0.00027777779693209203  6.977983678841369e-07  1.0000
  Ag  Ag6       1.0  0.0035711712243421388  0.005833333190666717  0.999637842886716  1.0000
  Ag  Ag7       1.0  0.0012100602802938237  0.005277777497728494  0.9991842740645356  1.0000
  Ag  Ag8       1.0  0.0031545045537125106  0.00749999987318523  0.9993657016423956  1.0000
  Ag  Ag9       1.0  0.004265615642366839  0.0030555555185679145  0.9990028464876712  1.0000
  Ag  Ag10      1.0  0.004682282312996468  0.0013888888360494014  0.9992749877319916  1.0000
  Ag  Ag11      1.0  0.0016267269509234522  0.003611110815209981  0.999456415308856  1.0000
  Ag  Ag12      1.0  0.002737837982156921  0.009166666159407586  0.9990935603970796  1.0000
  Ag  Ag13      1.0  0.007043393527777018  0.0019444443308395463  0.9997285568403854  1.0000
  Ag  Ag14      1.0  0.00898783851431837  0.004166666508148204  0.9999099844177476  1.0000
  Ag  Ag15      1.0  0.005098949147400451  0.00972222185234581  0.9995471289325487  1.0000
  Ag  Ag16      1.0  0.00551561571895604  0.008055555566123454  0.9998192704645759  1.0000
  Ag  Ag17      1.0  0.00746006016125388  0.00027777779693209203  6.977983678841369e-07  1.0000
  Ag  Ag18      1.0  0.008571171843688743  0.005833333190666717  0.999637842886716  1.0000
  Ag  Ag19      1.0  0.006210060236054781  0.005277777497728494  0.9991842740645356  1.0000
  Ag  Ag20      1.0  0.008154505173059113  0.00749999987318523  0.9993657016423956  1.0000
  Ag  Ag21      1.0  0.009265616261713443  0.0030555555185679145  0.9990028464876712  1.0000
  Ag  Ag22      1.0  0.009682282932343071  0.0013888888360494014  0.9992749877319916  1.0000
  Ag  Ag23      1.0  0.006626726906684408  0.003611110815209981  0.999456415308856  1.0000
  Ag  Ag24      1.0  0.007737838601503525  0.009166666159407586  0.9990935603970796  1.0000
