data_image0
_chemical_formula_structural       COCa10Zn6
_chemical_formula_sum              "C1 O1 Ca10 Zn6"
_cell_length_a       9.614171348649469
_cell_length_b       8.017333030700684
_cell_length_c       98.62992095947266
_cell_angle_alpha    90.0
_cell_angle_beta     84.96225571073735
_cell_angle_gamma    114.6424250870429

_space_group_name_H-M_alt    "P 1"
_space_group_IT_number       1

loop_
  _space_group_symop_operation_xyz
  'x, y, z'

loop_
  _atom_site_type_symbol
  _atom_site_label
  _atom_site_symmetry_multiplicity
  _atom_site_fract_x
  _atom_site_fract_y
  _atom_site_fract_z
  _atom_site_occupancy
  C   C1        1.0  0.003446219081300659  0.0021681457979425066  8.204210178458157e-06  1.0000
  O   O1        1.0  0.003446219081300659  0.0021681457979425066  0.0001298713898938907  1.0000
  Ca  Ca1       1.0  0.0014929247929310063  0.0012265214970211943  0.9994207619439421  1.0000
  Ca  Ca2       1.0  0.009042615039030356  0.004965234965838507  0.9997822301603657  1.0000
  Ca  Ca3       1.0  0.005167302515353541  0.0013036198486273754  0.9999109376654327  1.0000
  Ca  Ca4       1.0  0.005973050480531751  0.006850263298197786  0.9997951598839726  1.0000
  Ca  Ca5       1.0  0.007638740961144641  0.0010038682359860141  0.999553173281753  1.0000
  Ca  Ca6       1.0  0.0021099136561042627  0.0032250606355222417  0.9997525986524342  1.0000
  Ca  Ca7       1.0  0.0004205465212440581  0.00909520433354255  0.9999964002612484  1.0000
  Ca  Ca8       1.0  0.004551546427006224  0.006051393717282619  0.9994038167721813  1.0000
  Ca  Ca9       1.0  0.002847108076484322  0.008608051105967117  0.9996511956708679  1.0000
  Ca  Ca10      1.0  0.008434302499262901  0.006401648893528051  0.9994377068977482  1.0000
  Zn  Zn1       1.0  0.002583828362650461  0.006918973753339876  0.9999273132701806  1.0000
  Zn  Zn2       1.0  0.005242924411737714  0.003101521306424548  0.9996021846283085  1.0000
  Zn  Zn3       1.0  0.008424436874198827  0.000903271410707153  0.9998610463025445  1.0000
  Zn  Zn4       1.0  0.00207945331385772  0.0076928424541666375  0.9993356340891478  1.0000
  Zn  Zn5       1.0  0.0009063961649275253  0.00476019962440317  0.99950588949749  1.0000
  Zn  Zn6       1.0  0.009579453408085276  0.009096728245982044  0.9996984794505481  1.0000
