data_image0
_chemical_formula_structural       COAlRuAlRuAlRuAlRuAlRuAlRuAlRuAlRuAlRuAlRuAlRuAlRu
_chemical_formula_sum              "C1 O1 Al12 Ru12"
_cell_length_a       6.040909767150879
_cell_length_b       6.040909767150879
_cell_length_c       100.20455169677734
_cell_angle_alpha    90.0
_cell_angle_beta     90.0
_cell_angle_gamma    90.0

_space_group_name_H-M_alt    "P 1"
_space_group_IT_number       1

loop_
  _space_group_symop_operation_xyz
  'x, y, z'

loop_
  _atom_site_type_symbol
  _atom_site_label
  _atom_site_symmetry_multiplicity
  _atom_site_fract_x
  _atom_site_fract_y
  _atom_site_fract_z
  _atom_site_occupancy
  C   C1        1.0  0.003750253219922382  0.003749998840647182  0.00017285156644074684  1.0000
  O   O1        1.0  0.003750253219922382  0.003749998840647182  0.0002926062533372326  1.0000
  Al  Al1       1.0  0.0012497465704074276  0.0012500017976135448  0.9998558989329307  1.0000
  Ru  Ru1       1.0  0.003750253219922382  0.003749998840647182  0.0  1.0000
  Al  Al2       1.0  0.00124996394906078  0.0012499999475824523  0.9995581494844759  1.0000
  Ru  Ru2       1.0  0.0037499639983949425  0.003749999765662728  0.9997088638682996  1.0000
  Al  Al3       1.0  0.00124996394906078  0.0012499999475824523  0.9992567207168283  1.0000
  Ru  Ru3       1.0  0.0037499639983949425  0.003749999765662728  0.999407435100652  1.0000
  Al  Al4       1.0  0.0012497465704074276  0.006250001356689468  0.9998558989329307  1.0000
  Ru  Ru4       1.0  0.003750253219922382  0.008749998939315507  0.0  1.0000
  Al  Al5       1.0  0.00124996394906078  0.006250000123335406  0.9995581494844759  1.0000
  Ru  Ru5       1.0  0.0037499639983949425  0.008749999555992538  0.9997088638682996  1.0000
  Al  Al6       1.0  0.00124996394906078  0.006250000123335406  0.9992567207168283  1.0000
  Ru  Ru6       1.0  0.0037499639983949425  0.008749999555992538  0.999407435100652  1.0000
  Al  Al7       1.0  0.006249746669075753  0.0012500017976135448  0.9998558989329307  1.0000
  Ru  Ru7       1.0  0.008750253010252191  0.003749998840647182  0.0  1.0000
  Al  Al8       1.0  0.006249963739390589  0.0012499999475824523  0.9995581494844759  1.0000
  Ru  Ru8       1.0  0.008749963788724752  0.003749999765662728  0.9997088638682996  1.0000
  Al  Al9       1.0  0.006249963739390589  0.0012499999475824523  0.9992567207168283  1.0000
  Ru  Ru9       1.0  0.008749963788724752  0.003749999765662728  0.999407435100652  1.0000
  Al  Al10      1.0  0.006249746669075753  0.006250001356689468  0.9998558989329307  1.0000
  Ru  Ru10      1.0  0.008750253010252191  0.008749998939315507  0.0  1.0000
  Al  Al11      1.0  0.006249963739390589  0.006250000123335406  0.9995581494844759  1.0000
  Ru  Ru11      1.0  0.008749963788724752  0.008749999555992538  0.9997088638682996  1.0000
  Al  Al12      1.0  0.006249963739390589  0.006250000123335406  0.9992567207168283  1.0000
  Ru  Ru12      1.0  0.008749963788724752  0.008749999555992538  0.999407435100652  1.0000
