data_image0
_chemical_formula_structural       HAl18Ir6Al18Ir6
_chemical_formula_sum              "H1 Al36 Ir12"
_cell_length_a       7.828901290893555
_cell_length_b       11.425790953097305
_cell_length_c       100.22980499267578
_cell_angle_alpha    79.10660438612133
_cell_angle_beta     90.0
_cell_angle_gamma    90.0

_space_group_name_H-M_alt    "P 1"
_space_group_IT_number       1

loop_
  _space_group_symop_operation_xyz
  'x, y, z'

loop_
  _atom_site_type_symbol
  _atom_site_label
  _atom_site_symmetry_multiplicity
  _atom_site_fract_x
  _atom_site_fract_y
  _atom_site_fract_z
  _atom_site_occupancy
  H   H1        1.0  0.00750283116115606  0.008043023734029006  0.999938281660135  1.0000
  Al  Al1       1.0  0.007502831636994259  0.007216655633161018  0.9994018054996077  1.0000
  Al  Al2       1.0  0.007502831636994259  0.0038833220032185507  0.9992581842143798  1.0000
  Al  Al3       1.0  0.007502831636994259  0.0005499885807918021  0.9995454269065771  1.0000
  Al  Al4       1.0  0.0025028316084439676  0.007216655633161018  0.9994018054996077  1.0000
  Al  Al5       1.0  0.0025028316084439676  0.0038833220032185507  0.9992581842143798  1.0000
  Al  Al6       1.0  0.0025028316084439676  0.0005499885807918021  0.9995454269065771  1.0000
  Al  Al7       1.0  0.004211962720048901  0.006105544091155045  0.9992103104177195  1.0000
  Al  Al8       1.0  0.004211962720048901  0.0027722107932377283  0.9994975531072343  1.0000
  Al  Al9       1.0  0.004211962720048901  0.009438878053122664  0.9993539316957945  1.0000
  Al  Al10      1.0  0.009211962986518293  0.008327766511116691  0.9991624366139061  1.0000
  Al  Al11      1.0  0.009211962986518293  0.0049944332131993735  0.999449679303421  1.0000
  Al  Al12      1.0  0.009211962986518293  0.001661099749269481  0.9993060580146168  1.0000
  Al  Al13      1.0  0.005793700287470225  0.008327766511116691  0.9991624366139061  1.0000
  Al  Al14      1.0  0.005793700287470225  0.0049944332131993735  0.999449679303421  1.0000
  Al  Al15      1.0  0.005793700287470225  0.001661099749269481  0.9993060580146168  1.0000
  Al  Al16      1.0  0.0007937005563188086  0.006105544091155045  0.9992103104177195  1.0000
  Al  Al17      1.0  0.0007937005563188086  0.0027722107932377283  0.9994975531072343  1.0000
  Al  Al18      1.0  0.0007937005563188086  0.009438878053122664  0.9993539316957945  1.0000
  Ir  Ir1       1.0  0.007502831636994259  0.006105544091155045  0.9992103104177195  1.0000
  Ir  Ir2       1.0  0.007502831636994259  0.0027722107932377283  0.9994975531072343  1.0000
  Ir  Ir3       1.0  0.007502831636994259  0.009438878053122664  0.9993539316957945  1.0000
  Ir  Ir4       1.0  0.0025028316084439676  0.008327766511116691  0.9991624366139061  1.0000
  Ir  Ir5       1.0  0.0025028316084439676  0.0049944332131993735  0.999449679303421  1.0000
  Ir  Ir6       1.0  0.0025028316084439676  0.001661099749269481  0.9993060580146168  1.0000
  Al  Al19      1.0  0.00750283116115606  0.00721951038540672  0.9998441028450171  1.0000
  Al  Al20      1.0  0.007502830685317859  0.003913526663202696  0.9996846313834978  1.0000
  Al  Al21      1.0  0.00750283211283246  0.0005893089497852175  0.9999732776801831  1.0000
  Al  Al22      1.0  0.0025028316084439676  0.0071562443210418224  0.9998458315272188  1.0000
  Al  Al23      1.0  0.0025028308946866674  0.003852254741892891  0.9996849035514687  1.0000
  Al  Al24      1.0  0.0025028308946866674  0.0006172041673305398  0.9999895477948272  1.0000
  Al  Al25      1.0  0.004211962720048901  0.006105544091155045  0.999641174399615  1.0000
  Al  Al26      1.0  0.00420052927977861  0.002838075286431988  0.9999323916053778  1.0000
  Al  Al27      1.0  0.004227548800290844  0.009430980502888162  0.9997913315666593  1.0000
  Al  Al28      1.0  0.009211962986518293  0.008327766511116691  0.9995933005958018  1.0000
  Al  Al29      1.0  0.009205011942092273  0.004975983239625388  0.9998857389312876  1.0000
  Al  Al30      1.0  0.009221885164665294  0.0016864860602666977  0.9997389393533749  1.0000
  Al  Al31      1.0  0.005793700287470225  0.008327766511116691  0.9995933005958018  1.0000
  Al  Al32      1.0  0.005800650856058047  0.004975983571650538  0.9998857389241347  1.0000
  Al  Al33      1.0  0.005783778109323225  0.0016864863922918486  0.9997389393462219  1.0000
  Al  Al34      1.0  0.0007937005563188086  0.006105544091155045  0.999641174399615  1.0000
  Al  Al35      1.0  0.0008051330449127004  0.0028380749544068373  0.9999323916125308  1.0000
  Al  Al36      1.0  0.0007781145355566403  0.009430980502888162  0.9997913315666593  1.0000
  Ir  Ir7       1.0  0.007502831636994259  0.006105544091155045  0.999641174399615  1.0000
  Ir  Ir8       1.0  0.00750283116115606  0.002811297126003045  0.9999108690005514  1.0000
  Ir  Ir9       1.0  0.007502831636994259  0.009450011520475868  0.9997802726454921  1.0000
  Ir  Ir10      1.0  0.0025028316084439676  0.008327766511116691  0.9995933005958018  1.0000
  Ir  Ir11      1.0  0.0025028313705248674  0.004964027013948754  0.9998631655582033  1.0000
  Ir  Ir12      1.0  0.0025028318463630674  0.0016529591566246677  0.9997264650900806  1.0000
