data_image0
_chemical_formula_structural       HTi6Pt2Ti6Pt2
_chemical_formula_sum              "H1 Ti12 Pt4"
_cell_length_a       5.060669422149658
_cell_length_b       5.060669422149658
_cell_length_c       100.364013671875
_cell_angle_alpha    90.0
_cell_angle_beta     90.0
_cell_angle_gamma    90.0

_space_group_name_H-M_alt    "P 1"
_space_group_IT_number       1

loop_
  _space_group_symop_operation_xyz
  'x, y, z'

loop_
  _atom_site_type_symbol
  _atom_site_label
  _atom_site_symmetry_multiplicity
  _atom_site_fract_x
  _atom_site_fract_y
  _atom_site_fract_z
  _atom_site_occupancy
  H   H1        1.0  0.002500040663599797  0.009999989664791074  7.14995518404076e-05  1.0000
  Ti  Ti1       1.0  0.002500042503914777  0.005000010659104364  0.9995075369114024  1.0000
  Ti  Ti2       1.0  0.007500042489192257  0.005000010659104364  0.9995075369114024  1.0000
  Ti  Ti3       1.0  0.005000042312522019  1.0500000013149625e-08  0.9991293630589281  1.0000
  Ti  Ti4       1.0  0.005000042312522019  1.0500000013149625e-08  0.9993814789605776  1.0000
  Ti  Ti5       1.0  4.245000053455026e-08  0.002500010482434126  0.9992554210097528  1.0000
  Ti  Ti6       1.0  4.245000053455026e-08  0.007500010835774602  0.9992554210097528  1.0000
  Pt  Pt1       1.0  0.005000042312522019  0.005000010659104364  0.9992554210097528  1.0000
  Pt  Pt2       1.0  4.245000053455026e-08  1.0500000013149625e-08  0.9995075369114024  1.0000
  Ti  Ti7       1.0  0.002382439199467577  0.004999980477938693  1.0096038650809674e-08  1.0000
  Ti  Ti8       1.0  0.0076176356719070675  0.004999982318253673  0.0  1.0000
  Ti  Ti9       1.0  0.005000042312522019  1.0500000013149625e-08  0.9996335945652848  1.0000
  Ti  Ti10      1.0  0.005000124022507129  6.239999943629542e-08  0.9998998942134695  1.0000
  Ti  Ti11      1.0  1.2724999681638736e-07  0.0024946503810235245  0.9997550778228315  1.0000
  Ti  Ti12      1.0  1.314500013146037e-07  0.007505299164900985  0.9997550807922546  1.0000
  Pt  Pt3       1.0  0.0050000389999550554  0.004999966491544845  0.9997604530725861  1.0000
  Pt  Pt4       1.0  0.009999957275247426  0.009999916788317867  0.9999975888284164  1.0000
