data_image0
_chemical_formula_structural       CORh3Pb3Rh3Pb3
_chemical_formula_sum              "C1 O1 Rh6 Pb6"
_cell_length_a       5.786190986633301
_cell_length_b       5.78619085664345
_cell_length_c       101.7392807006836
_cell_angle_alpha    90.0
_cell_angle_beta     90.0
_cell_angle_gamma    120.00000074315379

_space_group_name_H-M_alt    "P 1"
_space_group_IT_number       1

loop_
  _space_group_symop_operation_xyz
  'x, y, z'

loop_
  _atom_site_type_symbol
  _atom_site_label
  _atom_site_symmetry_multiplicity
  _atom_site_fract_x
  _atom_site_fract_y
  _atom_site_fract_z
  _atom_site_occupancy
  C   C1        1.0  1.4271548973518602e-09  0.004999999583682406  0.00013221205131152798  1.0000
  O   O1        1.0  1.4271548973518602e-09  0.004999999583682406  0.0002501608340830425  1.0000
  Rh  Rh1       1.0  5.361184532112088e-10  0.005000000698818819  0.9995261060370917  1.0000
  Rh  Rh2       1.0  0.00500000048461251  0.005000000698818819  0.9995261060370917  1.0000
  Rh  Rh3       1.0  0.00500000029849405  6.999999855976021e-10  0.9995261060370917  1.0000
  Pb  Pb1       1.0  0.006666667355868544  0.003333334170924684  0.9993032724913127  1.0000
  Pb  Pb2       1.0  0.0033333339549733833  0.006666667598425092  0.9993032724913127  1.0000
  Pb  Pb3       1.0  5.499999922516034e-10  6.999999855976021e-10  0.9995261060370917  1.0000
  Rh  Rh4       1.0  1.4271548973518602e-09  0.004999999583682406  0.9999619679370816  1.0000
  Rh  Rh5       1.0  0.004999998242783591  0.004999998468545993  0.9999621067851323  1.0000
  Rh  Rh6       1.0  0.004999999682757609  1.3999999711952042e-09  0.9999622134110616  1.0000
  Pb  Pb4       1.0  0.006665166728285738  0.003332237991830469  0.9997529822874037  1.0000
  Pb  Pb5       1.0  0.003334835280367625  0.0066677641492314445  0.9997529822874037  1.0000
  Pb  Pb6       1.0  0.009999999210264319  0.009999999167364812  0.0  1.0000
