data_image0
_chemical_formula_structural       HGa8Pt24
_chemical_formula_sum              "H1 Ga8 Pt24"
_cell_length_a       5.6160915153474
_cell_length_b       7.897094249725342
_cell_length_c       103.69654846191406
_cell_angle_alpha    90.0
_cell_angle_beta     90.65113769262379
_cell_angle_gamma    90.0

_space_group_name_H-M_alt    "P 1"
_space_group_IT_number       1

loop_
  _space_group_symop_operation_xyz
  'x, y, z'

loop_
  _atom_site_type_symbol
  _atom_site_label
  _atom_site_symmetry_multiplicity
  _atom_site_fract_x
  _atom_site_fract_y
  _atom_site_fract_z
  _atom_site_occupancy
  H   H1        1.0  0.0075260606986714915  0.007537315330454714  0.00011438877420979659  1.0000
  Ga  Ga1       1.0  0.005176673470585174  0.0025372957442565116  0.9994731400612414  1.0000
  Ga  Ga2       1.0  0.00017667369364239284  0.0075372955178264756  0.9997439341629502  1.0000
  Ga  Ga3       1.0  0.00017667369364239284  0.0075372955178264756  0.9992023452880113  1.0000
  Ga  Ga4       1.0  0.0051326010125679325  0.0025373131982385317  3.1589898878654585e-06  1.0000
  Ga  Ga5       1.0  0.005176673470585174  0.0075372955178264756  0.9994731400612414  1.0000
  Ga  Ga6       1.0  0.00017667369364239284  0.0025372957442565116  0.9997439341629502  1.0000
  Ga  Ga7       1.0  0.00017667369364239284  0.0025372957442565116  0.9992023452880113  1.0000
  Ga  Ga8       1.0  0.005158694229499322  0.007537359673003629  2.0392473237747566e-06  1.0000
  Pt  Pt1       1.0  0.004800989722096484  0.0025372957442565116  0.9997235877617937  1.0000
  Pt  Pt2       1.0  0.009823325839512944  0.007537271459635043  0.9999890911775775  1.0000
  Pt  Pt3       1.0  0.009800989602690388  0.0075372955178264756  0.9994527930853501  1.0000
  Pt  Pt4       1.0  0.004800989722096484  0.0025372957442565116  0.9991819985994556  1.0000
  Pt  Pt5       1.0  0.007687684808793588  0.004713812491142813  0.9998847141803631  1.0000
  Pt  Pt6       1.0  0.00267667369613002  0.009661612121784098  0.9990669479498278  1.0000
  Pt  Pt7       1.0  0.00267667369613002  0.009661612121784098  0.9996085368247666  1.0000
  Pt  Pt8       1.0  0.007676673576723925  0.004661611876484891  0.9993377424357223  1.0000
  Pt  Pt9       1.0  0.00267667369613002  0.005412979385598096  0.9996085368247666  1.0000
  Pt  Pt10      1.0  0.007687662917676153  0.0003608432115135206  0.9998847153164871  1.0000
  Pt  Pt11      1.0  0.007676673576723925  0.00041297958254505495  0.9993377424357223  1.0000
  Pt  Pt12      1.0  0.00267667369613002  0.005412979385598096  0.9990669479498278  1.0000
  Pt  Pt13      1.0  0.005559114277322047  0.007537248344902097  0.9997561735472978  1.0000
  Pt  Pt14      1.0  0.000602319999663328  0.0025373004615489494  1.6198371108555957e-05  1.0000
  Pt  Pt15      1.0  0.0005523575872426571  0.0025372957442565116  0.9994934864624871  1.0000
  Pt  Pt16      1.0  0.005552357550757461  0.0075372955178264756  0.9992226920734939  1.0000
  Pt  Pt17      1.0  0.007676673576723925  0.005037295631041493  0.9996085373042908  1.0000
  Pt  Pt18      1.0  0.002761540583170453  0.009962704633126884  0.9998858834635046  1.0000
  Pt  Pt19      1.0  0.00267667369613002  3.729569899998722e-05  0.9993377425309968  1.0000
  Pt  Pt20      1.0  0.007676673576723925  0.005037295631041493  0.9990669481419526  1.0000
  Pt  Pt21      1.0  0.00267667369613002  0.005037295631041493  0.9993377425309968  1.0000
  Pt  Pt22      1.0  0.007676673576723925  3.729569899998722e-05  0.9996085373042908  1.0000
  Pt  Pt23      1.0  0.007676673576723925  3.729569899998722e-05  0.9990669481419526  1.0000
  Pt  Pt24      1.0  0.0027615769025243785  0.00511189442192321  0.9998858817614621  1.0000
