data_image0
_chemical_formula_structural       HV18Sb6
_chemical_formula_sum              "H1 V18 Sb6"
_cell_length_a       7.000801086425781
_cell_length_b       7.000800972508641
_cell_length_c       104.29678344726562
_cell_angle_alpha    90.0
_cell_angle_beta     90.0
_cell_angle_gamma    59.99999946172606

_space_group_name_H-M_alt    "P 1"
_space_group_IT_number       1

loop_
  _space_group_symop_operation_xyz
  'x, y, z'

loop_
  _atom_site_type_symbol
  _atom_site_label
  _atom_site_symmetry_multiplicity
  _atom_site_fract_x
  _atom_site_fract_y
  _atom_site_fract_z
  _atom_site_occupancy
  H   H1        1.0  0.006496939673280792  0.002186677328108672  5.784743454245776e-05  1.0000
  V   V1        1.0  0.006668102133370727  0.004583333255503858  0.9997401865989466  1.0000
  V   V2        1.0  1.435300119103325e-06  0.007916666560163174  0.999466154794308  1.0000
  V   V3        1.0  0.003353436221516518  0.0014467819993479233  0.9999999931421113  1.0000
  V   V4        1.0  0.0001891424169191385  0.002855020589550116  0.9998795320403489  1.0000
  V   V5        1.0  0.0033347683944577444  0.0062499997542227095  0.9996031705537546  1.0000
  V   V6        1.0  0.006668102035500963  0.009583333366103638  0.999329138749116  1.0000
  V   V7        1.0  0.004168102078070837  0.009583333366103638  0.9997401865989466  1.0000
  V   V8        1.0  0.007501435382730153  0.0029166667567850067  0.999466154794308  1.0000
  V   V9        1.0  0.0010315159358984661  0.006033711437444803  0.0  1.0000
  V   V10       1.0  0.002439907568278253  0.00779113888123593  0.9998795131811548  1.0000
  V   V11       1.0  0.005834768296146829  0.001249999950844542  0.9996031705537546  1.0000
  V   V12       1.0  0.009168102090800852  0.004583333255503858  0.999329138749116  1.0000
  V   V13       1.0  0.009168101432937134  0.007083333464414555  0.9997401865989466  1.0000
  V   V14       1.0  0.00250143526994442  0.0004166666630824145  0.999466154794308  1.0000
  V   V15       1.0  0.005618840501815586  0.003769203353908366  0.9999999731399357  1.0000
  V   V16       1.0  0.007375039492077534  0.0006041510718927675  0.9998794634614614  1.0000
  V   V17       1.0  0.0008347686752188145  0.0037499998525336257  0.9996031705537546  1.0000
  V   V18       1.0  0.004168102050200316  0.007083333464414555  0.999329138749116  1.0000
  Sb  Sb1       1.0  0.006668160781099288  0.007083182925824099  0.9999524816888884  1.0000
  Sb  Sb2       1.0  1.435245998865662e-06  0.0004166666630824145  0.9996716785763505  1.0000
  Sb  Sb3       1.0  0.0033347683665872242  0.0037499998525336257  0.999397646771712  1.0000
  Sb  Sb4       1.0  0.00666810147550701  0.007083333464414555  0.9995346625311586  1.0000
  Sb  Sb5       1.0  0.009998564938646235  0.0004167085604299113  9.000750381042587e-05  1.0000
  Sb  Sb6       1.0  0.0033347792922088465  0.0037502855686338786  0.9997959663800325  1.0000
